api/pglib_opf_case2869_pegase__api.m
%%%%%%%%%%%%%%%%%%%%%%%%%%%%%%%%%%%%%%%%%%%%%%%%%%%%%%%%%%%%%%%%%%%%%%%%%%%
%%%%                                                                  %%%%%
%%%%    IEEE PES Power Grid Library - Optimal Power Flow - v17.07     %%%%%
%%%%          (https://github.com/power-grid-lib/pglib-opf)           %%%%%
%%%%             Benchmark Group - Active Power Increase              %%%%%
%%%%                         24 - July - 2017                         %%%%%
%%%%                                                                  %%%%%
%%%%%%%%%%%%%%%%%%%%%%%%%%%%%%%%%%%%%%%%%%%%%%%%%%%%%%%%%%%%%%%%%%%%%%%%%%%
function mpc = pglib_opf_case2869_pegase__api
mpc.version = '2';
mpc.baseMVA = 100.0;

%% bus data
%	bus_i	type	Pd	Qd	Gs	Bs	area	Vm	Va	baseKV	zone	Vmax	Vmin
mpc.bus = [
	3	 1	 166.26	 48.80	 0.0	 4.69	 0	    1.00000	    0.00000	 220.0	 5	    1.10000	    0.90000;
	4	 1	 188.73	 23.40	 0.0	 2.1	 0	    1.00000	    0.00000	 220.0	 5	    1.10000	    0.90000;
	10	 1	 147.54	 24.70	 0.0	 12.44	 0	    1.00000	    0.00000	 220.0	 5	    1.10000	    0.90000;
	15	 1	 65.70	 26.70	 0.0	 12.84	 0	    1.00000	    0.00000	 220.0	 4	    1.10000	    0.90000;
	21	 1	 177.49	 39.30	 0.0	 30.71	 0	    1.00000	    0.00000	 220.0	 5	    1.10000	    0.90000;
	22	 1	 0.00	 -0.00	 0.0	 0.85	 0	    1.00000	    0.00000	 220.0	 5	    1.10000	    0.90000;
	26	 1	 184.20	 54.80	 0.0	 110.54	 0	    1.00000	    0.00000	 380.0	 5	    1.10000	    0.90000;
	29	 1	 168.35	 49.40	 0.0	 27.65	 0	    1.00000	    0.00000	 380.0	 5	    1.10000	    0.90000;
	32	 2	 0.00	 0.00	 0.0	 0.0	 0	    1.00000	    0.00000	 220.0	 4	    1.10000	    0.90000;
	33	 2	 0.00	 0.00	 0.0	 0.0	 0	    1.00000	    0.00000	 220.0	 4	    1.10000	    0.90000;
	38	 1	 47.07	 12.80	 0.0	 13.3	 0	    1.00000	    0.00000	 220.0	 8	    1.10000	    0.90000;
	39	 2	 0.00	 0.00	 0.0	 0.0	 0	    1.00000	    0.00000	 150.0	 10	    1.10000	    0.90000;
	42	 1	 22.92	 7.90	 0.0	 26.89	 0	    1.00000	    0.00000	 380.0	 4	    1.10000	    0.90000;
	44	 1	 -0.00	 0.00	 0.0	 7.27	 0	    1.00000	    0.00000	 220.0	 5	    1.10000	    0.90000;
	51	 2	 0.00	 0.00	 0.0	 0.0	 0	    1.00000	    0.00000	 220.0	 4	    1.10000	    0.90000;
	52	 1	 140.49	 31.80	 0.0	 20.51	 0	    1.00000	    0.00000	 150.0	 8	    1.10000	    0.90000;
	53	 1	 53.57	 16.10	 0.0	 7.14	 0	    1.00000	    0.00000	 220.0	 5	    1.10000	    0.90000;
	58	 1	 0.00	 0.00	 0.0	 2.31	 0	    1.00000	    0.00000	 380.0	 5	    1.10000	    0.90000;
	59	 1	 131.24	 20.70	 0.0	 3.31	 0	    1.00000	    0.00000	 220.0	 5	    1.10000	    0.90000;
	69	 1	 69.22	 20.50	 0.0	 1.15	 0	    1.00000	    0.00000	 150.0	 8	    1.10000	    0.90000;
	71	 1	 139.06	 42.40	 0.0	 55.24	 0	    1.00000	    0.00000	 150.0	 8	    1.10000	    0.90000;
	72	 1	 6.91	 -4.60	 0.0	 5.75	 0	    1.00000	    0.00000	 220.0	 4	    1.10000	    0.90000;
	75	 1	 42.65	 6.10	 0.0	 1.17	 0	    1.00000	    0.00000	 220.0	 4	    1.10000	    0.90000;
	76	 1	 24.37	 10.70	 0.0	 14.21	 0	    1.00000	    0.00000	 220.0	 8	    1.10000	    0.90000;
	77	 1	 -0.00	 -0.00	 0.0	 0.73	 0	    1.00000	    0.00000	 220.0	 4	    1.10000	    0.90000;
	89	 1	 0.00	 0.00	 0.199111	 4.530599	 0	    1.00000	    0.00000	 380.0	 2	    1.10000	    0.90000;
	90	 1	 399.95	 115.39	 0.0	 3.95	 0	    1.00000	    0.00000	 220.0	 5	    1.10000	    0.90000;
	91	 1	 -0.00	 0.00	 0.0	 0.02	 0	    1.00000	    0.00000	 150.0	 8	    1.10000	    0.90000;
	96	 1	 -8.40	 28.66	 0.0	 3.49	 0	    1.00000	    0.00000	 220.0	 5	    1.10000	    0.90000;
	113	 1	 -0.00	 -0.00	 0.0	 6.532711	 0	    1.00000	    0.00000	 380.0	 5	    1.10000	    0.90000;
	115	 1	 0.00	 -0.00	 0.0	 4.21	 0	    1.00000	    0.00000	 220.0	 5	    1.10000	    0.90000;
	118	 1	 704.53	 -35.33	 0.0	 13.102834	 0	    1.00000	    0.00000	 380.0	 5	    1.10000	    0.90000;
	124	 2	 0.00	 0.00	 0.0	 0.0	 0	    1.00000	    0.00000	 220.0	 5	    1.10000	    0.90000;
	128	 1	 26.13	 12.70	 0.0	 0.52	 0	    1.00000	    0.00000	 220.0	 5	    1.10000	    0.90000;
	130	 1	 -0.00	 0.00	 0.135375	 47.750675	 0	    1.00000	    0.00000	 380.0	 10	    1.10000	    0.90000;
	132	 1	 0.00	 -0.00	 0.0	 21.39	 0	    1.00000	    0.00000	 380.0	 1	    1.10000	    0.90000;
	133	 1	 41.99	 12.50	 0.0	 6.28	 0	    1.00000	    0.00000	 150.0	 8	    1.10000	    0.90000;
	138	 1	 -75.38	 7.80	 0.0	 29.9	 0	    1.00000	    0.00000	 380.0	 10	    1.10000	    0.90000;
	139	 1	 -764.34	 66.91	 0.0	 33.47	 0	    1.00000	    0.00000	 380.0	 8	    1.10000	    0.90000;
	140	 1	 0.00	 0.00	 0.0	 4.14	 0	    1.00000	    0.00000	 220.0	 8	    1.10000	    0.90000;
	143	 1	 0.00	 0.00	 0.0	 0.0	 0	    1.00000	    0.00000	 150.0	 8	    1.10000	    0.90000;
	145	 1	 42.21	 5.60	 0.0	 7.64	 0	    1.00000	    0.00000	 220.0	 5	    1.10000	    0.90000;
	148	 1	 35.61	 12.00	 0.0	 6.1	 0	    1.00000	    0.00000	 220.0	 5	    1.10000	    0.90000;
	150	 2	 0.00	 0.00	 0.0	 0.0	 0	    1.00000	    0.00000	 220.0	 5	    1.10000	    0.90000;
	163	 1	 162.69	 32.73	 0.0	 8.34	 0	    1.00000	    0.00000	 220.0	 5	    1.10000	    0.90000;
	164	 1	 0.00	 -0.00	 0.0	 5.17	 0	    1.00000	    0.00000	 150.0	 8	    1.10000	    0.90000;
	171	 1	 110.98	 13.20	 0.0	 5.24	 0	    1.00000	    0.00000	 220.0	 5	    1.10000	    0.90000;
	172	 1	 122.98	 10.96	 0.0	 4.22	 0	    1.00000	    0.00000	 220.0	 4	    1.10000	    0.90000;
	174	 1	 370.50	 -17.00	 0.0	 9.91	 0	    1.00000	    0.00000	 220.0	 5	    1.10000	    0.90000;
	177	 1	 104.49	 36.20	 0.0	 16.46	 0	    1.00000	    0.00000	 220.0	 10	    1.10000	    0.90000;
	179	 2	 0.00	 0.00	 0.0	 0.0	 0	    1.00000	    0.00000	 380.0	 4	    1.10000	    0.90000;
	184	 1	 -0.00	 -0.00	 0.0	 2.42	 0	    1.00000	    0.00000	 220.0	 5	    1.10000	    0.90000;
	188	 1	 40.56	 13.90	 0.0	 3.3	 0	    1.00000	    0.00000	 220.0	 5	    1.10000	    0.90000;
	194	 2	 0.00	 0.00	 0.0	 0.0	 0	    1.00000	    0.00000	 150.0	 8	    1.10000	    0.90000;
	195	 1	 80.53	 21.55	 0.0	 8.52	 0	    1.00000	    0.00000	 220.0	 5	    1.10000	    0.90000;
	196	 1	 0.00	 -0.00	 0.0	 12.48	 0	    1.00000	    0.00000	 220.0	 5	    1.10000	    0.90000;
	198	 1	 43.75	 11.80	 0.0	 1.44	 0	    1.00000	    0.00000	 220.0	 5	    1.10000	    0.90000;
	199	 1	 95.57	 28.40	 0.0	 1.34	 0	    1.00000	    0.00000	 150.0	 8	    1.10000	    0.90000;
	201	 2	 0.00	 0.00	 0.0	 0.0	 0	    1.00000	    0.00000	 220.0	 4	    1.10000	    0.90000;
	205	 1	 50.81	 18.20	 0.0	 1.29	 0	    1.00000	    0.00000	 150.0	 8	    1.10000	    0.90000;
	207	 1	 354.51	 84.40	 0.0	 1.34	 0	    1.00000	    0.00000	 220.0	 5	    1.10000	    0.90000;
	211	 1	 82.89	 19.20	 0.0	 1.9	 0	    1.00000	    0.00000	 110.0	 8	    1.10000	    0.90000;
	216	 1	 171.32	 54.70	 0.0	 2.21	 0	    1.00000	    0.00000	 220.0	 5	    1.10000	    0.90000;
	217	 1	 115.83	 0.10	 0.0	 7.36	 0	    1.00000	    0.00000	 220.0	 5	    1.10000	    0.90000;
	218	 1	 76.88	 15.12	 0.0	 2.23	 0	    1.00000	    0.00000	 220.0	 5	    1.10000	    0.90000;
	221	 2	 0.00	 0.00	 0.0	 0.0	 0	    1.00000	    0.00000	 380.0	 5	    1.10000	    0.90000;
	225	 1	 0.00	 0.00	 0.0	 1.15	 0	    1.00000	    0.00000	 220.0	 5	    1.10000	    0.90000;
	228	 1	 -23.43	 57.40	 0.0	 0.0	 0	    1.00000	    0.00000	 150.0	 2	    1.10000	    0.90000;
	230	 1	 167.43	 22.52	 0.0	 7.87	 0	    1.00000	    0.00000	 220.0	 4	    1.10000	    0.90000;
	231	 1	 -0.13	 -1.00	 0.0	 0.0	 0	    1.00000	    0.00000	 110.0	 8	    1.10000	    0.90000;
	236	 1	 50.48	 7.00	 0.0	 1.05	 0	    1.00000	    0.00000	 220.0	 4	    1.10000	    0.90000;
	243	 1	 0.00	 -0.01	 0.0	 13.49	 0	    1.00000	    0.00000	 150.0	 8	    1.10000	    0.90000;
	244	 1	 -0.00	 -0.00	 0.0	 0.68	 0	    1.00000	    0.00000	 150.0	 8	    1.10000	    0.90000;
	249	 1	 -0.00	 -0.00	 0.0	 26.3	 0	    1.00000	    0.00000	 220.0	 4	    1.10000	    0.90000;
	257	 1	 125.41	 24.50	 0.0	 6.72	 0	    1.00000	    0.00000	 220.0	 4	    1.10000	    0.90000;
	261	 1	 -0.00	 0.00	 0.0	 1.29	 0	    1.00000	    0.00000	 380.0	 10	    1.10000	    0.90000;
	264	 1	 42.65	 9.00	 0.0	 0.57	 0	    1.00000	    0.00000	 220.0	 4	    1.10000	    0.90000;
	266	 1	 0.00	 -0.00	 0.0	 140.96	 0	    1.00000	    0.00000	 380.0	 4	    1.10000	    0.90000;
	267	 1	 114.29	 2.70	 0.0	 3.33	 0	    1.00000	    0.00000	 220.0	 4	    1.10000	    0.90000;
	268	 1	 -0.13	 -1.00	 0.0	 0.0	 0	    1.00000	    0.00000	 220.0	 8	    1.10000	    0.90000;
	271	 1	 106.47	 26.80	 0.0	 0.0	 0	    1.00000	    0.00000	 150.0	 2	    1.10000	    0.90000;
	275	 1	 112.41	 25.30	 0.0	 1.11	 0	    1.00000	    0.00000	 150.0	 8	    1.10000	    0.90000;
	280	 1	 131.68	 29.60	 0.0	 5.34	 0	    1.00000	    0.00000	 220.0	 5	    1.10000	    0.90000;
	281	 1	 -0.00	 -0.00	 0.0	 18.07	 0	    1.00000	    0.00000	 380.0	 8	    1.10000	    0.90000;
	283	 1	 30.09	 11.90	 0.0	 1.17	 0	    1.00000	    0.00000	 220.0	 5	    1.10000	    0.90000;
	284	 1	 191.20	 -3.40	 0.0	 19.21	 0	    1.00000	    0.00000	 220.0	 4	    1.10000	    0.90000;
	292	 1	 15.22	 1.40	 0.0	 0.7	 0	    1.00000	    0.00000	 220.0	 5	    1.10000	    0.90000;
	297	 1	 26.13	 9.40	 0.0	 1.45	 0	    1.00000	    0.00000	 150.0	 8	    1.10000	    0.90000;
	299	 2	 0.00	 0.00	 0.0	 0.0	 0	    1.00000	    0.00000	 380.0	 4	    1.10000	    0.90000;
	304	 1	 2.42	 0.50	 0.0	 0.21	 0	    1.00000	    0.00000	 150.0	 10	    1.10000	    0.90000;
	305	 1	 113.41	 12.00	 0.0	 0.63	 0	    1.00000	    0.00000	 220.0	 5	    1.10000	    0.90000;
	306	 1	 -0.00	 0.00	 0.0	 4.76	 0	    1.00000	    0.00000	 220.0	 5	    1.10000	    0.90000;
	311	 1	 46.30	 17.20	 0.0	 1.31	 0	    1.00000	    0.00000	 150.0	 8	    1.10000	    0.90000;
	312	 1	 -0.16	 -2.91	 0.0	 0.43	 0	    1.00000	    0.00000	 110.0	 8	    1.10000	    0.90000;
	314	 1	 179.58	 46.30	 0.0	 10.6	 0	    1.00000	    0.00000	 220.0	 5	    1.10000	    0.90000;
	315	 1	 -0.00	 -0.00	 0.0	 2.13	 0	    1.00000	    0.00000	 220.0	 10	    1.10000	    0.90000;
	317	 1	 -0.00	 -0.00	 0.045946	 -1.82203	 0	    1.00000	    0.00000	 380.0	 2	    1.10000	    0.90000;
	322	 1	 334.49	 85.40	 0.0	 3.63	 0	    1.00000	    0.00000	 220.0	 10	    1.10000	    0.90000;
	326	 1	 0.00	 0.00	 0.0	 0.0	 0	    1.00000	    0.00000	 220.0	 8	    1.10000	    0.90000;
	333	 1	 577.49	 43.00	 0.0	 6.85	 0	    1.00000	    0.00000	 220.0	 5	    1.10000	    0.90000;
	338	 2	 0.00	 0.00	 0.0	 0.0	 0	    1.00000	    0.00000	 220.0	 5	    1.10000	    0.90000;
	344	 1	 410.46	 147.50	 0.0	 27.73	 0	    1.00000	    0.00000	 150.0	 8	    1.10000	    0.90000;
	346	 1	 217.45	 48.30	 0.0	 0.71	 0	    1.00000	    0.00000	 220.0	 5	    1.10000	    0.90000;
	349	 1	 -0.00	 0.00	 0.0	 15.15	 0	    1.00000	    0.00000	 150.0	 8	    1.10000	    0.90000;
	350	 1	 121.55	 26.20	 0.0	 5.62	 0	    1.00000	    0.00000	 220.0	 5	    1.10000	    0.90000;
	351	 1	 -0.15	 -1.93	 0.0	 0.0	 0	    1.00000	    0.00000	 220.0	 8	    1.10000	    0.90000;
	352	 2	 0.00	 0.00	 0.0	 0.0	 0	    1.00000	    0.00000	 380.0	 5	    1.10000	    0.90000;
	360	 1	 39.13	 11.50	 0.0	 3.65	 0	    1.00000	    0.00000	 110.0	 8	    1.10000	    0.90000;
	367	 1	 65.17	 -51.50	 0.0	 4.85	 0	    1.00000	    0.00000	 220.0	 5	    1.10000	    0.90000;
	369	 1	 -0.00	 0.00	 0.0	 3.78	 0	    1.00000	    0.00000	 220.0	 8	    1.10000	    0.90000;
	370	 1	 62.49	 23.20	 0.0	 0.49	 0	    1.00000	    0.00000	 150.0	 8	    1.10000	    0.90000;
	377	 1	 -0.18	 -1.00	 0.0	 0.0	 0	    1.00000	    0.00000	 150.0	 8	    1.10000	    0.90000;
	380	 1	 -95.71	 -2.80	 0.0	 7.25	 0	    1.00000	    0.00000	 220.0	 10	    1.10000	    0.90000;
	385	 1	 -0.00	 -0.00	 0.0	 105.84	 0	    1.00000	    0.00000	 380.0	 4	    1.10000	    0.90000;
	387	 1	 -0.19	 -4.38	 0.0	 0.0	 0	    1.00000	    0.00000	 150.0	 8	    1.10000	    0.90000;
	389	 2	 0.00	 0.00	 0.0	 0.0	 0	    1.00000	    0.00000	 150.0	 10	    1.10000	    0.90000;
	392	 1	 147.65	 34.20	 0.0	 0.75	 0	    1.00000	    0.00000	 150.0	 8	    1.10000	    0.90000;
	395	 1	 -0.00	 -0.00	 0.0	 7.85	 0	    1.00000	    0.00000	 380.0	 8	    1.10000	    0.90000;
	401	 1	 62.21	 36.29	 0.0	 3.08	 0	    1.00000	    0.00000	 220.0	 5	    1.10000	    0.90000;
	408	 1	 142.14	 7.40	 0.0	 0.04	 0	    1.00000	    0.00000	 220.0	 5	    1.10000	    0.90000;
	410	 1	 188.15	 50.38	 0.0	 6.44	 0	    1.00000	    0.00000	 220.0	 5	    1.10000	    0.90000;
	413	 2	 0.00	 0.00	 0.0	 0.0	 0	    1.00000	    0.00000	 220.0	 5	    1.10000	    0.90000;
	415	 1	 5.19	 0.70	 0.0	 11.39	 0	    1.00000	    0.00000	 220.0	 4	    1.10000	    0.90000;
	416	 1	 77.82	 13.50	 0.0	 6.96	 0	    1.00000	    0.00000	 220.0	 5	    1.10000	    0.90000;
	420	 1	 0.00	 0.00	 0.0	 0.0	 0	    1.00000	    0.00000	 380.0	 8	    1.10000	    0.90000;
	425	 1	 -0.00	 0.00	 0.0	 2.72	 0	    1.00000	    0.00000	 380.0	 1	    1.10000	    0.90000;
	426	 1	 135.54	 6.50	 0.0	 3.25	 0	    1.00000	    0.00000	 220.0	 5	    1.10000	    0.90000;
	427	 1	 -0.00	 0.00	 0.0	 1.24	 0	    1.00000	    0.00000	 380.0	 1	    1.10000	    0.90000;
	429	 1	 26.93	 -22.40	 0.0	 4.95	 0	    1.00000	    0.00000	 220.0	 4	    1.10000	    0.90000;
	432	 1	 -0.00	 -0.00	 0.0	 68.517663	 0	    1.00000	    0.00000	 380.0	 5	    1.10000	    0.90000;
	440	 2	 0.00	 0.00	 0.0	 0.0	 0	    1.00000	    0.00000	 220.0	 4	    1.10000	    0.90000;
	441	 1	 -0.00	 0.00	 0.199768	 27.888516	 0	    1.00000	    0.00000	 380.0	 10	    1.10000	    0.90000;
	442	 2	 0.00	 0.00	 0.0	 0.0	 0	    1.00000	    0.00000	 220.0	 4	    1.10000	    0.90000;
	444	 1	 0.00	 -0.00	 0.0	 2.45	 0	    1.00000	    0.00000	 220.0	 5	    1.10000	    0.90000;
	445	 1	 40.45	 10.30	 0.0	 8.1	 0	    1.00000	    0.00000	 220.0	 4	    1.10000	    0.90000;
	449	 1	 0.00	 0.00	 0.0	 29.42	 0	    1.00000	    0.00000	 380.0	 5	    1.10000	    0.90000;
	453	 2	 0.00	 0.00	 0.0	 0.0	 0	    1.00000	    0.00000	 380.0	 5	    1.10000	    0.90000;
	455	 1	 302.03	 5.66	 0.0	 13.24	 0	    1.00000	    0.00000	 220.0	 5	    1.10000	    0.90000;
	472	 1	 370.17	 131.60	 0.0	 64.01	 0	    1.00000	    0.00000	 150.0	 8	    1.10000	    0.90000;
	473	 1	 -22.95	 -3.72	 0.0	 14.34	 0	    1.00000	    0.00000	 220.0	 4	    1.10000	    0.90000;
	477	 1	 0.00	 0.00	 0.0	 70.37	 0	    1.00000	    0.00000	 380.0	 4	    1.10000	    0.90000;
	481	 1	 -0.00	 0.00	 0.0	 17.44	 0	    1.00000	    0.00000	 220.0	 4	    1.10000	    0.90000;
	483	 1	 63.04	 15.60	 0.0	 3.43	 0	    1.00000	    0.00000	 220.0	 4	    1.10000	    0.90000;
	486	 1	 7.72	 2.00	 0.0	 0.44	 0	    1.00000	    0.00000	 150.0	 8	    1.10000	    0.90000;
	489	 2	 0.00	 0.00	 0.0	 0.0	 0	    1.00000	    0.00000	 220.0	 4	    1.10000	    0.90000;
	490	 1	 22.59	 4.00	 0.0	 2.77	 0	    1.00000	    0.00000	 220.0	 5	    1.10000	    0.90000;
	496	 1	 -0.00	 -0.00	 0.0	 10.04	 0	    1.00000	    0.00000	 150.0	 8	    1.10000	    0.90000;
	500	 1	 158.99	 35.50	 0.0	 7.66	 0	    1.00000	    0.00000	 220.0	 5	    1.10000	    0.90000;
	502	 1	 -0.00	 0.00	 0.0	 1.96	 0	    1.00000	    0.00000	 220.0	 5	    1.10000	    0.90000;
	506	 1	 -0.00	 0.00	 0.0	 0.4	 0	    1.00000	    0.00000	 380.0	 5	    1.10000	    0.90000;
	509	 1	 85.10	 7.00	 0.0	 17.6	 0	    1.00000	    0.00000	 220.0	 4	    1.10000	    0.90000;
	513	 1	 63.27	 17.10	 0.0	 1.61	 0	    1.00000	    0.00000	 220.0	 5	    1.10000	    0.90000;
	516	 2	 0.00	 0.00	 0.0	 0.0	 0	    1.00000	    0.00000	 220.0	 5	    1.10000	    0.90000;
	519	 1	 228.13	 9.40	 0.0	 8.77	 0	    1.00000	    0.00000	 220.0	 4	    1.10000	    0.90000;
	520	 1	 130.47	 20.40	 0.0	 2.57	 0	    1.00000	    0.00000	 220.0	 5	    1.10000	    0.90000;
	523	 1	 209.09	 74.70	 0.0	 26.2	 0	    1.00000	    0.00000	 150.0	 8	    1.10000	    0.90000;
	527	 1	 305.76	 45.40	 0.0	 0.7	 0	    1.00000	    0.00000	 220.0	 4	    1.10000	    0.90000;
	536	 1	 87.80	 -1.40	 0.079073	 36.047349	 0	    1.00000	    0.00000	 380.0	 10	    1.10000	    0.90000;
	539	 1	 63.82	 18.90	 0.0	 14.91	 0	    1.00000	    0.00000	 150.0	 8	    1.10000	    0.90000;
	544	 1	 87.74	 39.60	 0.0	 18.83	 0	    1.00000	    0.00000	 380.0	 10	    1.10000	    0.90000;
	548	 1	 34.05	 8.90	 0.0	 0.45	 0	    1.00000	    0.00000	 110.0	 8	    1.10000	    0.90000;
	549	 1	 0.00	 -0.00	 0.0	 5.15	 0	    1.00000	    0.00000	 220.0	 5	    1.10000	    0.90000;
	550	 1	 0.00	 -0.00	 0.0	 10.0	 0	    1.00000	    0.00000	 220.0	 4	    1.10000	    0.90000;
	552	 1	 199.07	 90.80	 0.0	 2.42	 0	    1.00000	    0.00000	 150.0	 10	    1.10000	    0.90000;
	554	 1	 0.00	 -0.00	 0.0	 1.97	 0	    1.00000	    0.00000	 220.0	 5	    1.10000	    0.90000;
	556	 1	 18.19	 9.00	 0.0	 1.17	 0	    1.00000	    0.00000	 220.0	 5	    1.10000	    0.90000;
	558	 1	 -0.18	 -3.57	 0.0	 0.0	 0	    1.00000	    0.00000	 150.0	 8	    1.10000	    0.90000;
	559	 1	 46.52	 16.60	 0.0	 0.0	 0	    1.00000	    0.00000	 150.0	 8	    1.10000	    0.90000;
	561	 1	 0.00	 -0.00	 0.0	 0.32	 0	    1.00000	    0.00000	 220.0	 5	    1.10000	    0.90000;
	564	 2	 0.00	 0.00	 0.0	 0.0	 0	    1.00000	    0.00000	 220.0	 5	    1.10000	    0.90000;
	575	 1	 0.00	 -0.00	 0.0	 0.67	 0	    1.00000	    0.00000	 220.0	 5	    1.10000	    0.90000;
	577	 1	 -0.13	 -1.00	 0.0	 0.0	 0	    1.00000	    0.00000	 220.0	 8	    1.10000	    0.90000;
	579	 1	 19.07	 6.60	 0.0	 16.52	 0	    1.00000	    0.00000	 380.0	 4	    1.10000	    0.90000;
	583	 2	 0.00	 0.00	 0.0	 0.0	 0	    1.00000	    0.00000	 220.0	 5	    1.10000	    0.90000;
	585	 1	 23.25	 8.30	 0.0	 4.26	 0	    1.00000	    0.00000	 150.0	 8	    1.10000	    0.90000;
	593	 1	 -0.00	 0.00	 0.0	 29.2	 0	    1.00000	    0.00000	 380.0	 8	    1.10000	    0.90000;
	594	 1	 74.40	 17.00	 0.0	 5.75	 0	    1.00000	    0.00000	 220.0	 5	    1.10000	    0.90000;
	595	 1	 52.35	 5.30	 0.0	 7.59	 0	    1.00000	    0.00000	 220.0	 4	    1.10000	    0.90000;
	597	 1	 36.71	 15.70	 0.0	 64.15	 0	    1.00000	    0.00000	 380.0	 4	    1.10000	    0.90000;
	601	 1	 154.80	 42.60	 0.0	 5.71	 0	    1.00000	    0.00000	 220.0	 5	    1.10000	    0.90000;
	602	 1	 110.80	 -8.80	 0.0	 3.15	 0	    1.00000	    0.00000	 220.0	 4	    1.10000	    0.90000;
	604	 1	 36.60	 4.40	 0.0	 24.54	 0	    1.00000	    0.00000	 380.0	 5	    1.10000	    0.90000;
	608	 1	 166.15	 10.40	 0.0	 4.77	 0	    1.00000	    0.00000	 220.0	 5	    1.10000	    0.90000;
	609	 1	 -0.00	 -0.00	 0.0	 5.67	 0	    1.00000	    0.00000	 220.0	 5	    1.10000	    0.90000;
	610	 1	 -0.00	 0.00	 0.0	 0.91	 0	    1.00000	    0.00000	 150.0	 10	    1.10000	    0.90000;
	615	 2	 0.00	 0.00	 0.0	 0.0	 0	    1.00000	    0.00000	 220.0	 5	    1.10000	    0.90000;
	616	 2	 0.00	 0.00	 0.0	 0.0	 0	    1.00000	    0.00000	 220.0	 5	    1.10000	    0.90000;
	618	 2	 0.00	 0.00	 0.0	 0.0	 0	    1.00000	    0.00000	 380.0	 4	    1.10000	    0.90000;
	619	 1	 80.24	 14.40	 0.0	 2.96	 0	    1.00000	    0.00000	 220.0	 5	    1.10000	    0.90000;
	621	 1	 23.58	 8.10	 0.0	 7.38	 0	    1.00000	    0.00000	 220.0	 4	    1.10000	    0.90000;
	628	 2	 0.00	 0.00	 0.0	 0.0	 0	    1.00000	    0.00000	 220.0	 10	    1.10000	    0.90000;
	639	 2	 0.00	 0.00	 0.0	 0.0	 0	    1.00000	    0.00000	 220.0	 5	    1.10000	    0.90000;
	641	 1	 49.90	 18.50	 0.0	 0.74	 0	    1.00000	    0.00000	 220.0	 5	    1.10000	    0.90000;
	642	 2	 0.00	 0.00	 0.0	 0.0	 0	    1.00000	    0.00000	 380.0	 4	    1.10000	    0.90000;
	643	 1	 17.09	 6.30	 0.0	 0.6	 0	    1.00000	    0.00000	 150.0	 8	    1.10000	    0.90000;
	649	 1	 45.08	 19.20	 0.0	 5.2	 0	    1.00000	    0.00000	 220.0	 4	    1.10000	    0.90000;
	650	 1	 18.96	 4.40	 0.0	 1.71	 0	    1.00000	    0.00000	 110.0	 8	    1.10000	    0.90000;
	656	 1	 -0.15	 -1.93	 0.0	 0.0	 0	    1.00000	    0.00000	 220.0	 8	    1.10000	    0.90000;
	658	 1	 284.51	 66.70	 0.0	 5.87	 0	    1.00000	    0.00000	 220.0	 5	    1.10000	    0.90000;
	659	 1	 -0.00	 -0.00	 0.174507	 73.977052	 0	    1.00000	    0.00000	 380.0	 2	    1.10000	    0.90000;
...
];

%% generator data
%	bus	Pg	Qg	Qmax	Qmin	Vg	mBase	status	Pmax	Pmin	Pc1	Pc2	Qc1min	Qc1max	Qc2min	Qc2max	ramp_agc	ramp_10	ramp_30	ramp_q	apf
mpc.gen = [
	32	 138.5	 0.0	 259.2	 -259.2	 1.006206	 100.0	 1	 277	 0.0	 0.0	 0.0	 0.0	 0.0	 0.0	 0.0	 0.0	 0.0	 0.0	 0.0	 0.0; % NG
	33	 172.0	 0.0	 1452.0	 -1452.0	 1.031909	 100.0	 1	 344	 0.0	 0.0	 0.0	 0.0	 0.0	 0.0	 0.0	 0.0	 0.0	 0.0	 0.0	 0.0; % NG
	39	 64.5	 0.0	 65.0	 -65.0	 1.005551	 100.0	 1	 129	 0.0	 0.0	 0.0	 0.0	 0.0	 0.0	 0.0	 0.0	 0.0	 0.0	 0.0	 0.0; % COW
	51	 -96.335	 0.0	 37.2	 -37.2	 1.01198	 100.0	 1	 0	 -192.67	 0.0	 0.0	 0.0	 0.0	 0.0	 0.0	 0.0	 0.0	 0.0	 0.0	 0.0; % SYNC
	124	 389.3325	 67.16	 440.32	 -306.0	 1.079291	 100.0	 1	 612	 166.665	 0.0	 0.0	 0.0	 0.0	 0.0	 0.0	 0.0	 0.0	 0.0	 0.0	 0.0; % COW
	150	 100.5	 0.0	 301.2	 -301.2	 1.062067	 100.0	 1	 201	 0.0	 0.0	 0.0	 0.0	 0.0	 0.0	 0.0	 0.0	 0.0	 0.0	 0.0	 0.0; % NG
	179	 -36.465	 0.0	 169.2	 -169.2	 1.048817	 100.0	 1	 166	 -238.93	 0.0	 0.0	 0.0	 0.0	 0.0	 0.0	 0.0	 0.0	 0.0	 0.0	 0.0; % NG
	194	 200.5	 0.0	 176.0	 -176.0	 1.029584	 100.0	 1	 351	 50.0	 0.0	 0.0	 0.0	 0.0	 0.0	 0.0	 0.0	 0.0	 0.0	 0.0	 0.0; % COW
	201	 122.5	 0.0	 123.0	 -123.0	 1.024675	 100.0	 1	 245	 0.0	 0.0	 0.0	 0.0	 0.0	 0.0	 0.0	 0.0	 0.0	 0.0	 0.0	 0.0; % NG
	221	 -103.59	 59.31	 183.92	 -65.3	 0.996091	 100.0	 1	 0	 -207.18	 0.0	 0.0	 0.0	 0.0	 0.0	 0.0	 0.0	 0.0	 0.0	 0.0	 0.0; % SYNC
	299	 629.3325	 112.625	 721.25	 -496.0	 1.046197	 100.0	 1	 992	 266.665	 0.0	 0.0	 0.0	 0.0	 0.0	 0.0	 0.0	 0.0	 0.0	 0.0	 0.0; % NUC
	338	 93.5	 0.0	 94.0	 -94.0	 1.049578	 100.0	 1	 187	 0.0	 0.0	 0.0	 0.0	 0.0	 0.0	 0.0	 0.0	 0.0	 0.0	 0.0	 0.0; % NG
	352	 631.6675	 230.675	 926.35	 -465.0	 1.054691	 100.0	 1	 930	 333.335	 0.0	 0.0	 0.0	 0.0	 0.0	 0.0	 0.0	 0.0	 0.0	 0.0	 0.0; % NG
	389	 67.0	 0.0	 67.0	 -67.0	 1.020856	 100.0	 1	 134	 0.0	 0.0	 0.0	 0.0	 0.0	 0.0	 0.0	 0.0	 0.0	 0.0	 0.0	 0.0; % COW
	413	 69.5	 27.06	 124.12	 -70.0	 1.052152	 100.0	 1	 139	 0.0	 0.0	 0.0	 0.0	 0.0	 0.0	 0.0	 0.0	 0.0	 0.0	 0.0	 0.0; % NG
	440	 73.0	 0.0	 73.0	 -73.0	 1.029422	 100.0	 1	 146	 0.0	 0.0	 0.0	 0.0	 0.0	 0.0	 0.0	 0.0	 0.0	 0.0	 0.0	 0.0; % NG
	442	 95.1	 0.0	 122.0	 -122.0	 1.013689	 100.0	 1	 244	 -53.8	 0.0	 0.0	 0.0	 0.0	 0.0	 0.0	 0.0	 0.0	 0.0	 0.0	 0.0; % COW
	453	 182.0	 37.615	 257.23	 -182.0	 1.021096	 100.0	 1	 364	 0.0	 0.0	 0.0	 0.0	 0.0	 0.0	 0.0	 0.0	 0.0	 0.0	 0.0	 0.0; % NG
	489	 -23.6	 0.0	 66.0	 -66.0	 1.012805	 100.0	 1	 96	 -143.2	 0.0	 0.0	 0.0	 0.0	 0.0	 0.0	 0.0	 0.0	 0.0	 0.0	 0.0; % NG
	516	 251.5	 29.895	 261.79	 -202.0	 1.074804	 100.0	 1	 403	 100.0	 0.0	 0.0	 0.0	 0.0	 0.0	 0.0	 0.0	 0.0	 0.0	 0.0	 0.0; % COW
	564	 600.055	 0.0	 635.0	 -635.0	 1.069692	 100.0	 1	 1269	 -68.89	 0.0	 0.0	 0.0	 0.0	 0.0	 0.0	 0.0	 0.0	 0.0	 0.0	 0.0; % NG
	583	 -180.0	 -0.66	 17.88	 -19.2	 1.043394	 100.0	 1	 0	 -360.0	 0.0	 0.0	 0.0	 0.0	 0.0	 0.0	 0.0	 0.0	 0.0	 0.0	 0.0; % SYNC
	615	 44.5	 0.0	 520.8	 -520.8	 1.06611	 100.0	 1	 89	 0.0	 0.0	 0.0	 0.0	 0.0	 0.0	 0.0	 0.0	 0.0	 0.0	 0.0	 0.0; % NG
	616	 246.5	 5.45	 217.9	 -207.0	 1.049295	 100.0	 1	 413	 80.0	 0.0	 0.0	 0.0	 0.0	 0.0	 0.0	 0.0	 0.0	 0.0	 0.0	 0.0; % COW
	618	 556.1675	 0.0	 490.0	 -490.0	 1.028233	 100.0	 1	 979	 133.335	 0.0	 0.0	 0.0	 0.0	 0.0	 0.0	 0.0	 0.0	 0.0	 0.0	 0.0; % NG
	628	 100.0	 0.0	 159.6	 -159.6	 0.98494	 100.0	 1	 200	 0.0	 0.0	 0.0	 0.0	 0.0	 0.0	 0.0	 0.0	 0.0	 0.0	 0.0	 0.0; % NG
	639	 357.2	 0.0	 388.0	 -388.0	 1.046182	 100.0	 1	 776	 -61.6	 0.0	 0.0	 0.0	 0.0	 0.0	 0.0	 0.0	 0.0	 0.0	 0.0	 0.0; % COW
	642	 529.5	 0.0	 530.0	 -530.0	 1.036757	 100.0	 1	 1059	 0.0	 0.0	 0.0	 0.0	 0.0	 0.0	 0.0	 0.0	 0.0	 0.0	 0.0	 0.0; % COW
	682	 79.5	 0.0	 80.0	 -80.0	 1.065269	 100.0	 1	 159	 0.0	 0.0	 0.0	 0.0	 0.0	 0.0	 0.0	 0.0	 0.0	 0.0	 0.0	 0.0; % NG
	686	 114.57	 0.0	 129.0	 -129.0	 1.018064	 100.0	 1	 258	 -28.86	 0.0	 0.0	 0.0	 0.0	 0.0	 0.0	 0.0	 0.0	 0.0	 0.0	 0.0; % NG
	698	 342.5	 0.0	 318.0	 -318.0	 1.001541	 100.0	 1	 635	 50.0	 0.0	 0.0	 0.0	 0.0	 0.0	 0.0	 0.0	 0.0	 0.0	 0.0	 0.0; % NG
	709	 106.0	 0.0	 186.0	 -186.0	 1.072146	 100.0	 1	 212	 0.0	 0.0	 0.0	 0.0	 0.0	 0.0	 0.0	 0.0	 0.0	 0.0	 0.0	 0.0; % PEL
	739	 260.6675	 0.0	 219.0	 -219.0	 1.040583	 100.0	 1	 438	 83.335	 0.0	 0.0	 0.0	 0.0	 0.0	 0.0	 0.0	 0.0	 0.0	 0.0	 0.0; % NG
	749	 70.0	 17.845	 105.69	 -70.0	 1.0548	 100.0	 1	 140	 0.0	 0.0	 0.0	 0.0	 0.0	 0.0	 0.0	 0.0	 0.0	 0.0	 0.0	 0.0; % NG
	751	 106.0	 15.47	 136.94	 -106.0	 1.023645	 100.0	 1	 212	 0.0	 0.0	 0.0	 0.0	 0.0	 0.0	 0.0	 0.0	 0.0	 0.0	 0.0	 0.0; % NG
	757	 581.5	 0.0	 582.0	 -582.0	 1.016623	 100.0	 1	 1163	 0.0	 0.0	 0.0	 0.0	 0.0	 0.0	 0.0	 0.0	 0.0	 0.0	 0.0	 0.0; % NG
	776	 18.235	 0.0	 93.0	 -93.0	 1.029038	 100.0	 1	 185	 -148.53	 0.0	 0.0	 0.0	 0.0	 0.0	 0.0	 0.0	 0.0	 0.0	 0.0	 0.0; % NG
	778	 42.0	 0.0	 776.4	 -776.4	 1.051035	 100.0	 1	 84	 0.0	 0.0	 0.0	 0.0	 0.0	 0.0	 0.0	 0.0	 0.0	 0.0	 0.0	 0.0; % PEL
	780	 151.0	 0.0	 151.2	 -151.2	 1.006139	 100.0	 1	 302	 0.0	 0.0	 0.0	 0.0	 0.0	 0.0	 0.0	 0.0	 0.0	 0.0	 0.0	 0.0; % NG
	795	 132.5	 0.0	 555.6	 -555.6	 1.039638	 100.0	 1	 265	 0.0	 0.0	 0.0	 0.0	 0.0	 0.0	 0.0	 0.0	 0.0	 0.0	 0.0	 0.0; % NG
	803	 -40.965	 24.245	 74.03	 -25.54	 1.04396	 100.0	 1	 37	 -118.93	 0.0	 0.0	 0.0	 0.0	 0.0	 0.0	 0.0	 0.0	 0.0	 0.0	 0.0; % NG
	807	 775.1675	 127.735	 864.47	 -609.0	 1.057043	 100.0	 1	 1217	 333.335	 0.0	 0.0	 0.0	 0.0	 0.0	 0.0	 0.0	 0.0	 0.0	 0.0	 0.0; % NUC
	823	 840.6675	 126.34	 926.68	 -674.0	 1.044347	 100.0	 1	 1348	 333.335	 0.0	 0.0	 0.0	 0.0	 0.0	 0.0	 0.0	 0.0	 0.0	 0.0	 0.0; % COW
	849	 129.5	 0.0	 254.4	 -254.4	 1.041392	 100.0	 1	 259	 0.0	 0.0	 0.0	 0.0	 0.0	 0.0	 0.0	 0.0	 0.0	 0.0	 0.0	 0.0; % PEL
	851	 104.5	 0.0	 124.8	 -124.8	 1.006263	 100.0	 1	 209	 0.0	 0.0	 0.0	 0.0	 0.0	 0.0	 0.0	 0.0	 0.0	 0.0	 0.0	 0.0; % NG
	858	 919.8325	 0.0	 837.0	 -837.0	 1.035299	 100.0	 1	 1673	 166.665	 0.0	 0.0	 0.0	 0.0	 0.0	 0.0	 0.0	 0.0	 0.0	 0.0	 0.0; % COW
	891	 978.5	 159.205	 1097.41	 -779.0	 1.063198	 100.0	 1	 1557	 400.0	 0.0	 0.0	 0.0	 0.0	 0.0	 0.0	 0.0	 0.0	 0.0	 0.0	 0.0; % COW
	913	 1147.1675	 0.0	 1006.0	 -1006.0	 1.032774	 100.0	 1	 2011	 283.335	 0.0	 0.0	 0.0	 0.0	 0.0	 0.0	 0.0	 0.0	 0.0	 0.0	 0.0; % NUC
	916	 178.0	 0.0	 178.0	 -178.0	 1.024009	 100.0	 1	 356	 0.0	 0.0	 0.0	 0.0	 0.0	 0.0	 0.0	 0.0	 0.0	 0.0	 0.0	 0.0; % NG
	930	 347.5	 66.83	 406.66	 -273.0	 1.063763	 100.0	 1	 545	 150.0	 0.0	 0.0	 0.0	 0.0	 0.0	 0.0	 0.0	 0.0	 0.0	 0.0	 0.0; % PEL
	972	 781.1675	 159.865	 934.73	 -615.0	 1.068998	 100.0	 1	 1229	 333.335	 0.0	 0.0	 0.0	 0.0	 0.0	 0.0	 0.0	 0.0	 0.0	 0.0	 0.0; % COW
	976	 334.5	 0.0	 335.0	 -335.0	 1.029847	 100.0	 1	 669	 0.0	 0.0	 0.0	 0.0	 0.0	 0.0	 0.0	 0.0	 0.0	 0.0	 0.0	 0.0; % NG
	1001	 916.0	 0.0	 916.0	 -916.0	 1.073365	 100.0	 1	 1832	 0.0	 0.0	 0.0	 0.0	 0.0	 0.0	 0.0	 0.0	 0.0	 0.0	 0.0	 0.0; % COW
	1002	 463.0	 0.0	 463.0	 -463.0	 1.040649	 100.0	 1	 926	 0.0	 0.0	 0.0	 0.0	 0.0	 0.0	 0.0	 0.0	 0.0	 0.0	 0.0	 0.0; % NG
	1021	 46.465	 0.0	 166.0	 -166.0	 1.019135	 100.0	 1	 332	 -239.07	 0.0	 0.0	 0.0	 0.0	 0.0	 0.0	 0.0	 0.0	 0.0	 0.0	 0.0; % COW
	1030	 150.5	 0.0	 126.0	 -126.0	 1.00979	 100.0	 1	 251	 50.0	 0.0	 0.0	 0.0	 0.0	 0.0	 0.0	 0.0	 0.0	 0.0	 0.0	 0.0; % NG
	1036	 111.5	 25.195	 137.39	 -87.0	 1.038657	 100.0	 1	 173	 50.0	 0.0	 0.0	 0.0	 0.0	 0.0	 0.0	 0.0	 0.0	 0.0	 0.0	 0.0; % NG
	1043	 509.0	 0.0	 434.0	 -434.0	 1.029789	 100.0	 1	 868	 150.0	 0.0	 0.0	 0.0	 0.0	 0.0	 0.0	 0.0	 0.0	 0.0	 0.0	 0.0; % COW
	1083	 136.0	 0.0	 136.0	 -136.0	 1.046149	 100.0	 1	 272	 0.0	 0.0	 0.0	 0.0	 0.0	 0.0	 0.0	 0.0	 0.0	 0.0	 0.0	 0.0; % NG
	1093	 711.5	 0.0	 612.0	 -612.0	 1.026457	 100.0	 1	 1223	 200.0	 0.0	 0.0	 0.0	 0.0	 0.0	 0.0	 0.0	 0.0	 0.0	 0.0	 0.0; % COW
	1100	 47.0	 0.0	 47.0	 -47.0	 1.045212	 100.0	 1	 94	 0.0	 0.0	 0.0	 0.0	 0.0	 0.0	 0.0	 0.0	 0.0	 0.0	 0.0	 0.0; % NG
	1102	 -62.77	 -3.175	 38.05	 -44.4	 1.051902	 100.0	 1	 40	 -165.54	 0.0	 0.0	 0.0	 0.0	 0.0	 0.0	 0.0	 0.0	 0.0	 0.0	 0.0; % NG
	1121	 216.0	 0.0	 216.0	 -216.0	 1.019674	 100.0	 1	 432	 0.0	 0.0	 0.0	 0.0	 0.0	 0.0	 0.0	 0.0	 0.0	 0.0	 0.0	 0.0; % NG
	1173	 -83.135	 0.0	 21.6	 -21.6	 1.026125	 100.0	 1	 0	 -166.27	 0.0	 0.0	 0.0	 0.0	 0.0	 0.0	 0.0	 0.0	 0.0	 0.0	 0.0; % SYNC
	1174	 243.0	 0.0	 243.0	 -243.0	 1.004865	 100.0	 1	 486	 0.0	 0.0	 0.0	 0.0	 0.0	 0.0	 0.0	 0.0	 0.0	 0.0	 0.0	 0.0; % NG
	1175	 273.5	 0.0	 224.0	 -224.0	 1.040018	 100.0	 1	 447	 100.0	 0.0	 0.0	 0.0	 0.0	 0.0	 0.0	 0.0	 0.0	 0.0	 0.0	 0.0; % COW
	1237	 751.1675	 160.805	 906.61	 -585.0	 1.105045	 100.0	 1	 1169	 333.335	 0.0	 0.0	 0.0	 0.0	 0.0	 0.0	 0.0	 0.0	 0.0	 0.0	 0.0; % NUC
	1241	 59.0	 0.0	 75.6	 -75.6	 1.021438	 100.0	 1	 118	 0.0	 0.0	 0.0	 0.0	 0.0	 0.0	 0.0	 0.0	 0.0	 0.0	 0.0	 0.0; % PEL
	1251	 709.5	 0.0	 610.0	 -610.0	 1.0265	 100.0	 1	 1219	 200.0	 0.0	 0.0	 0.0	 0.0	 0.0	 0.0	 0.0	 0.0	 0.0	 0.0	 0.0; % COW
	1271	 53.5	 0.0	 121.0	 -121.0	 1.015573	 100.0	 1	 241	 -134.0	 0.0	 0.0	 0.0	 0.0	 0.0	 0.0	 0.0	 0.0	 0.0	 0.0	 0.0; % NG
	1295	 -82.735	 10.66	 36.92	 -15.6	 1.038943	 100.0	 1	 0	 -165.47	 0.0	 0.0	 0.0	 0.0	 0.0	 0.0	 0.0	 0.0	 0.0	 0.0	 0.0; % SYNC
	1341	 112.0	 0.0	 112.0	 -112.0	 1.030396	 100.0	 1	 224	 0.0	 0.0	 0.0	 0.0	 0.0	 0.0	 0.0	 0.0	 0.0	 0.0	 0.0	 0.0; % NG
	1354	 -164.335	 1.64	 38.08	 -34.8	 1.04168	 100.0	 1	 0	 -328.67	 0.0	 0.0	 0.0	 0.0	 0.0	 0.0	 0.0	 0.0	 0.0	 0.0	 0.0; % SYNC
	1391	 71.5	 0.0	 72.0	 -72.0	 1.028915	 100.0	 1	 143	 0.0	 0.0	 0.0	 0.0	 0.0	 0.0	 0.0	 0.0	 0.0	 0.0	 0.0	 0.0; % NG
	1399	 2.1	 0.0	 119.0	 -119.0	 1.052722	 100.0	 1	 237	 -232.8	 0.0	 0.0	 0.0	 0.0	 0.0	 0.0	 0.0	 0.0	 0.0	 0.0	 0.0; % COW
	1409	 1170.1675	 0.0	 1104.0	 -1104.0	 1.024907	 100.0	 1	 2207	 133.335	 0.0	 0.0	 0.0	 0.0	 0.0	 0.0	 0.0	 0.0	 0.0	 0.0	 0.0; % COW
	1422	 -61.335	 5.65	 18.09	 -6.79	 1.045292	 100.0	 1	 12	 -134.67	 0.0	 0.0	 0.0	 0.0	 0.0	 0.0	 0.0	 0.0	 0.0	 0.0	 0.0; % NG
	1436	 163.5	 0.0	 266.4	 -266.4	 1.049261	 100.0	 1	 327	 0.0	 0.0	 0.0	 0.0	 0.0	 0.0	 0.0	 0.0	 0.0	 0.0	 0.0	 0.0; % NG
	1458	 626.1675	 217.615	 895.23	 -460.0	 1.05352	 100.0	 1	 919	 333.335	 0.0	 0.0	 0.0	 0.0	 0.0	 0.0	 0.0	 0.0	 0.0	 0.0	 0.0; % NUC
	1475	 529.5	 0.0	 455.0	 -455.0	 1.025403	 100.0	 1	 909	 150.0	 0.0	 0.0	 0.0	 0.0	 0.0	 0.0	 0.0	 0.0	 0.0	 0.0	 0.0; % COW
	1478	 147.5	 0.0	 148.0	 -148.0	 1.046165	 100.0	 1	 295	 0.0	 0.0	 0.0	 0.0	 0.0	 0.0	 0.0	 0.0	 0.0	 0.0	 0.0	 0.0; % NG
	1498	 244.5	 0.0	 245.0	 -245.0	 1.078389	 100.0	 1	 489	 0.0	 0.0	 0.0	 0.0	 0.0	 0.0	 0.0	 0.0	 0.0	 0.0	 0.0	 0.0; % NG
	1570	 102.6675	 0.0	 259.2	 -259.2	 1.079057	 100.0	 1	 172	 33.335	 0.0	 0.0	 0.0	 0.0	 0.0	 0.0	 0.0	 0.0	 0.0	 0.0	 0.0; % NG
	1604	 106.0	 0.0	 106.0	 -106.0	 1.044277	 100.0	 1	 212	 0.0	 0.0	 0.0	 0.0	 0.0	 0.0	 0.0	 0.0	 0.0	 0.0	 0.0	 0.0; % PEL
	1618	 -91.065	 0.0	 99.6	 -99.6	 1.079319	 100.0	 1	 0	 -182.13	 0.0	 0.0	 0.0	 0.0	 0.0	 0.0	 0.0	 0.0	 0.0	 0.0	 0.0; % SYNC
	1642	 145.5	 0.0	 242.4	 -242.4	 1.031925	 100.0	 1	 291	 0.0	 0.0	 0.0	 0.0	 0.0	 0.0	 0.0	 0.0	 0.0	 0.0	 0.0	 0.0; % NG
	1680	 684.1675	 205.445	 928.89	 -518.0	 1.044209	 100.0	 1	 1035	 333.335	 0.0	 0.0	 0.0	 0.0	 0.0	 0.0	 0.0	 0.0	 0.0	 0.0	 0.0; % COW
	1685	 188.0	 0.0	 188.0	 -188.0	 1.005778	 100.0	 1	 376	 0.0	 0.0	 0.0	 0.0	 0.0	 0.0	 0.0	 0.0	 0.0	 0.0	 0.0	 0.0; % NG
	1697	 9.0	 0.0	 135.0	 -135.0	 1.041486	 100.0	 1	 270	 -252.0	 0.0	 0.0	 0.0	 0.0	 0.0	 0.0	 0.0	 0.0	 0.0	 0.0	 0.0; % NG
	1708	 847.3325	 0.0	 764.0	 -764.0	 1.037844	 100.0	 1	 1528	 166.665	 0.0	 0.0	 0.0	 0.0	 0.0	 0.0	 0.0	 0.0	 0.0	 0.0	 0.0; % COW
	1721	 190.5	 0.0	 247.2	 -247.2	 1.061536	 100.0	 1	 381	 0.0	 0.0	 0.0	 0.0	 0.0	 0.0	 0.0	 0.0	 0.0	 0.0	 0.0	 0.0; % COW
	1747	 544.0	 0.0	 627.6	 -627.6	 1.055274	 100.0	 1	 938	 150.0	 0.0	 0.0	 0.0	 0.0	 0.0	 0.0	 0.0	 0.0	 0.0	 0.0	 0.0; % COW
	1754	 232.0	 0.0	 762.0	 -762.0	 1.040804	 100.0	 1	 464	 0.0	 0.0	 0.0	 0.0	 0.0	 0.0	 0.0	 0.0	 0.0	 0.0	 0.0	 0.0; % NG
	1788	 1017.5	 0.0	 1347.6	 -1347.6	 1.018729	 100.0	 1	 1935	 100.0	 0.0	 0.0	 0.0	 0.0	 0.0	 0.0	 0.0	 0.0	 0.0	 0.0	 0.0; % NG
	1793	 21.3	 0.0	 82.0	 -82.0	 1.023406	 100.0	 1	 163	 -120.4	 0.0	 0.0	 0.0	 0.0	 0.0	 0.0	 0.0	 0.0	 0.0	 0.0	 0.0; % COW
	1794	 859.6675	 116.675	 926.35	 -693.0	 1.052726	 100.0	 1	 1386	 333.335	 0.0	 0.0	 0.0	 0.0	 0.0	 0.0	 0.0	 0.0	 0.0	 0.0	 0.0; % COW
	1808	 95.6	 7.615	 111.23	 -96.0	 1.047818	 100.0	 1	 192	 -0.8	 0.0	 0.0	 0.0	 0.0	 0.0	 0.0	 0.0	 0.0	 0.0	 0.0	 0.0; % NG
	1850	 131.0	 0.0	 131.0	 -131.0	 1.020156	 100.0	 1	 262	 0.0	 0.0	 0.0	 0.0	 0.0	 0.0	 0.0	 0.0	 0.0	 0.0	 0.0	 0.0; % PEL
	1851	 42.5	 0.0	 228.0	 -228.0	 1.0492	 100.0	 1	 85	 0.0	 0.0	 0.0	 0.0	 0.0	 0.0	 0.0	 0.0	 0.0	 0.0	 0.0	 0.0; % PEL
	1852	 -71.7	 0.0	 90.0	 -90.0	 1.056131	 100.0	 1	 179	 -322.4	 0.0	 0.0	 0.0	 0.0	 0.0	 0.0	 0.0	 0.0	 0.0	 0.0	 0.0; % NG
	1888	 681.695	 0.0	 604.0	 -604.0	 1.043102	 100.0	 1	 1207	 156.39	 0.0	 0.0	 0.0	 0.0	 0.0	 0.0	 0.0	 0.0	 0.0	 0.0	 0.0; % COW
	1890	 460.8325	 179.365	 686.73	 -328.0	 1.050852	 100.0	 1	 655	 266.665	 0.0	 0.0	 0.0	 0.0	 0.0	 0.0	 0.0	 0.0	 0.0	 0.0	 0.0; % NUC
	1898	 121.5	 0.555	 133.11	 -132.0	 1.077705	 100.0	 1	 243	 0.0	 0.0	 0.0	 0.0	 0.0	 0.0	 0.0	 0.0	 0.0	 0.0	 0.0	 0.0; % COW
	1909	 23.715	 0.0	 45.0	 -45.0	 1.021788	 100.0	 1	 89	 -41.57	 0.0	 0.0	 0.0	 0.0	 0.0	 0.0	 0.0	 0.0	 0.0	 0.0	 0.0; % NG
	1914	 100.8375	 0.0	 297.6	 -297.6	 1.038338	 100.0	 1	 182	 19.675	 0.0	 0.0	 0.0	 0.0	 0.0	 0.0	 0.0	 0.0	 0.0	 0.0	 0.0; % COW
	1947	 222.15	 0.0	 234.0	 -234.0	 1.056511	 100.0	 1	 467	 -22.7	 0.0	 0.0	 0.0	 0.0	 0.0	 0.0	 0.0	 0.0	 0.0	 0.0	 0.0; % NG
	1959	 39.0	 0.0	 502.8	 -502.8	 1.066953	 100.0	 1	 78	 0.0	 0.0	 0.0	 0.0	 0.0	 0.0	 0.0	 0.0	 0.0	 0.0	 0.0	 0.0; % NG
	1999	 105.0	 0.0	 174.0	 -174.0	 1.080207	 100.0	 1	 210	 0.0	 0.0	 0.0	 0.0	 0.0	 0.0	 0.0	 0.0	 0.0	 0.0	 0.0	 0.0; % COW
	2030	 334.0	 0.0	 284.0	 -284.0	 1.072679	 100.0	 1	 568	 100.0	 0.0	 0.0	 0.0	 0.0	 0.0	 0.0	 0.0	 0.0	 0.0	 0.0	 0.0; % COW
	2035	 460.8325	 31.925	 441.85	 -378.0	 1.034553	 100.0	 1	 755	 166.665	 0.0	 0.0	 0.0	 0.0	 0.0	 0.0	 0.0	 0.0	 0.0	 0.0	 0.0; % COW
	2050	 945.6675	 91.6	 962.2	 -779.0	 1.008592	 100.0	 1	 1558	 333.335	 0.0	 0.0	 0.0	 0.0	 0.0	 0.0	 0.0	 0.0	 0.0	 0.0	 0.0; % COW
	2085	 105.5	 0.0	 106.0	 -106.0	 1.03273	 100.0	 1	 211	 0.0	 0.0	 0.0	 0.0	 0.0	 0.0	 0.0	 0.0	 0.0	 0.0	 0.0	 0.0; % NG
	2091	 103.5	 0.0	 104.0	 -104.0	 1.026543	 100.0	 1	 207	 0.0	 0.0	 0.0	 0.0	 0.0	 0.0	 0.0	 0.0	 0.0	 0.0	 0.0	 0.0; % NG
	2096	 566.0	 28.37	 522.74	 -466.0	 1.050714	 100.0	 1	 932	 200.0	 0.0	 0.0	 0.0	 0.0	 0.0	 0.0	 0.0	 0.0	 0.0	 0.0	 0.0; % COW
	2107	 963.0	 0.0	 1486.8	 -1486.8	 1.048234	 100.0	 1	 1676	 250.0	 0.0	 0.0	 0.0	 0.0	 0.0	 0.0	 0.0	 0.0	 0.0	 0.0	 0.0; % COW
	2150	 426.5	 0.0	 377.0	 -377.0	 1.064827	 100.0	 1	 753	 100.0	 0.0	 0.0	 0.0	 0.0	 0.0	 0.0	 0.0	 0.0	 0.0	 0.0	 0.0; % COW
	2177	 73.135	 0.0	 154.0	 -154.0	 1.070558	 100.0	 1	 308	 -161.73	 0.0	 0.0	 0.0	 0.0	 0.0	 0.0	 0.0	 0.0	 0.0	 0.0	 0.0; % NG
	2193	 146.5	 0.0	 147.0	 -147.0	 1.014181	 100.0	 1	 293	 0.0	 0.0	 0.0	 0.0	 0.0	 0.0	 0.0	 0.0	 0.0	 0.0	 0.0	 0.0; % NG
	2197	 146.475	 0.0	 182.0	 -182.0	 1.036195	 100.0	 1	 364	 -71.05	 0.0	 0.0	 0.0	 0.0	 0.0	 0.0	 0.0	 0.0	 0.0	 0.0	 0.0; % NG
	2206	 112.5	 24.645	 137.29	 -88.0	 1.020141	 100.0	 1	 175	 50.0	 0.0	 0.0	 0.0	 0.0	 0.0	 0.0	 0.0	 0.0	 0.0	 0.0	 0.0; % COW
	2225	 -46.165	 0.0	 10.0	 -10.0	 1.02967	 100.0	 1	 19	 -111.33	 0.0	 0.0	 0.0	 0.0	 0.0	 0.0	 0.0	 0.0	 0.0	 0.0	 0.0; % COW
	2236	 39.37	 0.0	 65.0	 -65.0	 1.023164	 100.0	 1	 130	 -51.26	 0.0	 0.0	 0.0	 0.0	 0.0	 0.0	 0.0	 0.0	 0.0	 0.0	 0.0; % NG
	2267	 356.6675	 0.0	 315.0	 -315.0	 1.000857	 100.0	 1	 630	 83.335	 0.0	 0.0	 0.0	 0.0	 0.0	 0.0	 0.0	 0.0	 0.0	 0.0	 0.0; % COW
	2276	 111.5	 0.0	 124.8	 -124.8	 1.055141	 100.0	 1	 223	 0.0	 0.0	 0.0	 0.0	 0.0	 0.0	 0.0	 0.0	 0.0	 0.0	 0.0	 0.0; % NG
	2291	 55.5	 19.845	 95.69	 -56.0	 1.068687	 100.0	 1	 111	 0.0	 0.0	 0.0	 0.0	 0.0	 0.0	 0.0	 0.0	 0.0	 0.0	 0.0	 0.0; % COW
	2335	 317.0	 -27.055	 273.49	 -327.6	 1.040978	 100.0	 1	 534	 100.0	 0.0	 0.0	 0.0	 0.0	 0.0	 0.0	 0.0	 0.0	 0.0	 0.0	 0.0; % COW
	2359	 122.5	 0.0	 123.0	 -123.0	 1.025004	 100.0	 1	 245	 0.0	 0.0	 0.0	 0.0	 0.0	 0.0	 0.0	 0.0	 0.0	 0.0	 0.0	 0.0; % PEL
	2412	 133.0	 -0.875	 134.54	 -136.29	 1.016849	 100.0	 1	 266	 0.0	 0.0	 0.0	 0.0	 0.0	 0.0	 0.0	 0.0	 0.0	 0.0	 0.0	 0.0; % NG
	2421	 293.9	 0.0	 508.0	 -508.0	 1.047704	 100.0	 1	 1015	 -427.2	 0.0	 0.0	 0.0	 0.0	 0.0	 0.0	 0.0	 0.0	 0.0	 0.0	 0.0; % COW
	2425	 151.5	 0.0	 219.0	 -219.0	 1.043025	 100.0	 1	 437	 -134.0	 0.0	 0.0	 0.0	 0.0	 0.0	 0.0	 0.0	 0.0	 0.0	 0.0	 0.0; % NG
	2426	 64.2	 0.0	 220.8	 -220.8	 1.040828	 100.0	 1	 186	 -57.6	 0.0	 0.0	 0.0	 0.0	 0.0	 0.0	 0.0	 0.0	 0.0	 0.0	 0.0; % NG
	2446	 627.6675	 230.31	 921.62	 -461.0	 1.053565	 100.0	 1	 922	 333.335	 0.0	 0.0	 0.0	 0.0	 0.0	 0.0	 0.0	 0.0	 0.0	 0.0	 0.0; % COW
	2460	 230.0	 0.0	 230.0	 -230.0	 0.983266	 100.0	 1	 460	 0.0	 0.0	 0.0	 0.0	 0.0	 0.0	 0.0	 0.0	 0.0	 0.0	 0.0	 0.0; % NG
	2468	 63.0	 0.0	 63.0	 -63.0	 1.049474	 100.0	 1	 126	 0.0	 0.0	 0.0	 0.0	 0.0	 0.0	 0.0	 0.0	 0.0	 0.0	 0.0	 0.0; % NG
	2481	 62.0	 0.0	 62.0	 -62.0	 1.041748	 100.0	 1	 124	 0.0	 0.0	 0.0	 0.0	 0.0	 0.0	 0.0	 0.0	 0.0	 0.0	 0.0	 0.0; % NG
	2489	 56.5	 50.305	 162.4	 -61.79	 1.049212	 100.0	 1	 113	 0.0	 0.0	 0.0	 0.0	 0.0	 0.0	 0.0	 0.0	 0.0	 0.0	 0.0	 0.0; % NG
	2517	 65.5	 0.53	 78.13	 -77.07	 1.017237	 100.0	 1	 131	 0.0	 0.0	 0.0	 0.0	 0.0	 0.0	 0.0	 0.0	 0.0	 0.0	 0.0	 0.0; % NG
	2550	 32.0	 12.915	 58.23	 -32.4	 1.050935	 100.0	 1	 64	 0.0	 0.0	 0.0	 0.0	 0.0	 0.0	 0.0	 0.0	 0.0	 0.0	 0.0	 0.0; % NG
	2572	 259.5	 33.095	 276.19	 -210.0	 1.044905	 100.0	 1	 419	 100.0	 0.0	 0.0	 0.0	 0.0	 0.0	 0.0	 0.0	 0.0	 0.0	 0.0	 0.0; % NG
	2600	 168.5	 0.0	 361.2	 -361.2	 1.041924	 100.0	 1	 337	 0.0	 0.0	 0.0	 0.0	 0.0	 0.0	 0.0	 0.0	 0.0	 0.0	 0.0	 0.0; % NG
	2627	 654.6675	 216.76	 921.52	 -488.0	 1.052984	 100.0	 1	 976	 333.335	 0.0	 0.0	 0.0	 0.0	 0.0	 0.0	 0.0	 0.0	 0.0	 0.0	 0.0; % COW
	2642	 810.1675	 102.38	 848.76	 -644.0	 1.054923	 100.0	 1	 1287	 333.335	 0.0	 0.0	 0.0	 0.0	 0.0	 0.0	 0.0	 0.0	 0.0	 0.0	 0.0; % COW
	2653	 766.0	 0.0	 766.0	 -766.0	 1.036409	 100.0	 1	 1532	 0.0	 0.0	 0.0	 0.0	 0.0	 0.0	 0.0	 0.0	 0.0	 0.0	 0.0	 0.0; % COW
	2658	 393.5	 0.0	 344.0	 -344.0	 1.026597	 100.0	 1	 687	 100.0	 0.0	 0.0	 0.0	 0.0	 0.0	 0.0	 0.0	 0.0	 0.0	 0.0	 0.0; % COW
	2660	 40.0	 19.845	 79.69	 -40.0	 1.013897	 100.0	 1	 80	 0.0	 0.0	 0.0	 0.0	 0.0	 0.0	 0.0	 0.0	 0.0	 0.0	 0.0	 0.0; % NG
	2686	 -15.1	 -0.445	 69.01	 -69.9	 1.020441	 100.0	 1	 67	 -97.2	 0.0	 0.0	 0.0	 0.0	 0.0	 0.0	 0.0	 0.0	 0.0	 0.0	 0.0; % NG
	2719	 149.0	 0.0	 996.0	 -996.0	 1.039499	 100.0	 1	 298	 0.0	 0.0	 0.0	 0.0	 0.0	 0.0	 0.0	 0.0	 0.0	 0.0	 0.0	 0.0; % COW
	2764	 821.5	 0.0	 747.0	 -747.0	 1.05096	 100.0	 1	 1493	 150.0	 0.0	 0.0	 0.0	 0.0	 0.0	 0.0	 0.0	 0.0	 0.0	 0.0	 0.0; % COW
	2786	 711.6675	 194.905	 934.81	 -545.0	 1.069288	 100.0	 1	 1090	 333.335	 0.0	 0.0	 0.0	 0.0	 0.0	 0.0	 0.0	 0.0	 0.0	 0.0	 0.0; % NUC
	2797	 -63.4	 9.365	 88.33	 -69.6	 1.044662	 100.0	 1	 0	 -126.8	 0.0	 0.0	 0.0	 0.0	 0.0	 0.0	 0.0	 0.0	 0.0	 0.0	 0.0; % SYNC
	2799	 50.5	 13.455	 77.91	 -51.0	 1.055463	 100.0	 1	 101	 0.0	 0.0	 0.0	 0.0	 0.0	 0.0	 0.0	 0.0	 0.0	 0.0	 0.0	 0.0; % COW
	2800	 758.5	 0.0	 659.0	 -659.0	 1.030206	 100.0	 1	 1317	 200.0	 0.0	 0.0	 0.0	 0.0	 0.0	 0.0	 0.0	 0.0	 0.0	 0.0	 0.0; % NUC
	2816	 838.6675	 127.13	 926.26	 -672.0	 1.054536	 100.0	 1	 1344	 333.335	 0.0	 0.0	 0.0	 0.0	 0.0	 0.0	 0.0	 0.0	 0.0	 0.0	 0.0; % COW
	2817	 183.5	 0.0	 376.8	 -376.8	 0.991705	 100.0	 1	 367	 0.0	 0.0	 0.0	 0.0	 0.0	 0.0	 0.0	 0.0	 0.0	 0.0	 0.0	 0.0; % NG
	2841	 93.0	 0.0	 93.0	 -93.0	 1.079986	 100.0	 1	 186	 0.0	 0.0	 0.0	 0.0	 0.0	 0.0	 0.0	 0.0	 0.0	 0.0	 0.0	 0.0; % COW
	2842	 74.5	 0.0	 75.0	 -75.0	 1.044122	 100.0	 1	 149	 0.0	 0.0	 0.0	 0.0	 0.0	 0.0	 0.0	 0.0	 0.0	 0.0	 0.0	 0.0; % NG
	2853	 209.5	 0.0	 210.0	 -210.0	 1.000604	 100.0	 1	 419	 0.0	 0.0	 0.0	 0.0	 0.0	 0.0	 0.0	 0.0	 0.0	 0.0	 0.0	 0.0; % COW
	2872	 144.5	 0.0	 145.0	 -145.0	 1.060615	 100.0	 1	 289	 0.0	 0.0	 0.0	 0.0	 0.0	 0.0	 0.0	 0.0	 0.0	 0.0	 0.0	 0.0; % COW
	2878	 65.0	 2.12	 72.95	 -68.71	 1.05418	 100.0	 1	 130	 0.0	 0.0	 0.0	 0.0	 0.0	 0.0	 0.0	 0.0	 0.0	 0.0	 0.0	 0.0; % NG
	2886	 114.0	 0.0	 114.0	 -114.0	 1.052878	 100.0	 1	 228	 0.0	 0.0	 0.0	 0.0	 0.0	 0.0	 0.0	 0.0	 0.0	 0.0	 0.0	 0.0; % NG
	2896	 -148.935	 0.0	 121.2	 -121.2	 1.011629	 100.0	 1	 0	 -297.87	 0.0	 0.0	 0.0	 0.0	 0.0	 0.0	 0.0	 0.0	 0.0	 0.0	 0.0; % SYNC
	2902	 27.5	 0.0	 28.0	 -28.0	 1.061022	 100.0	 1	 55	 0.0	 0.0	 0.0	 0.0	 0.0	 0.0	 0.0	 0.0	 0.0	 0.0	 0.0	 0.0; % PEL
	2930	 96.5	 0.0	 320.4	 -320.4	 1.049271	 100.0	 1	 193	 0.0	 0.0	 0.0	 0.0	 0.0	 0.0	 0.0	 0.0	 0.0	 0.0	 0.0	 0.0; % NG
	2934	 37.0	 0.0	 724.8	 -724.8	 1.052968	 100.0	 1	 74	 0.0	 0.0	 0.0	 0.0	 0.0	 0.0	 0.0	 0.0	 0.0	 0.0	 0.0	 0.0; % PEL
	2946	 -69.065	 0.0	 79.0	 -79.0	 1.020023	 100.0	 1	 158	 -296.13	 0.0	 0.0	 0.0	 0.0	 0.0	 0.0	 0.0	 0.0	 0.0	 0.0	 0.0; % NG
	2985	 53.5	 25.895	 184.46	 -132.67	 1.05077	 100.0	 1	 107	 0.0	 0.0	 0.0	 0.0	 0.0	 0.0	 0.0	 0.0	 0.0	 0.0	 0.0	 0.0; % COW
	3018	 40.0	 24.805	 89.61	 -40.0	 1.043371	 100.0	 1	 80	 0.0	 0.0	 0.0	 0.0	 0.0	 0.0	 0.0	 0.0	 0.0	 0.0	 0.0	 0.0; % NG
	3028	 531.3325	 0.0	 448.0	 -448.0	 1.034318	 100.0	 1	 896	 166.665	 0.0	 0.0	 0.0	 0.0	 0.0	 0.0	 0.0	 0.0	 0.0	 0.0	 0.0; % COW
	3054	 316.3325	 0.0	 594.0	 -594.0	 0.999852	 100.0	 1	 566	 66.665	 0.0	 0.0	 0.0	 0.0	 0.0	 0.0	 0.0	 0.0	 0.0	 0.0	 0.0; % NG
	3113	 61.965	 0.0	 523.2	 -523.2	 1.072644	 100.0	 1	 151	 -27.07	 0.0	 0.0	 0.0	 0.0	 0.0	 0.0	 0.0	 0.0	 0.0	 0.0	 0.0; % NG
	3114	 132.5	 0.0	 186.0	 -186.0	 1.0681	 100.0	 1	 265	 0.0	 0.0	 0.0	 0.0	 0.0	 0.0	 0.0	 0.0	 0.0	 0.0	 0.0	 0.0; % COW
	3133	 154.5	 0.0	 155.0	 -155.0	 1.061763	 100.0	 1	 309	 0.0	 0.0	 0.0	 0.0	 0.0	 0.0	 0.0	 0.0	 0.0	 0.0	 0.0	 0.0; % COW
	3134	 -90.865	 3.325	 70.25	 -63.6	 1.02503	 100.0	 1	 0	 -181.73	 0.0	 0.0	 0.0	 0.0	 0.0	 0.0	 0.0	 0.0	 0.0	 0.0	 0.0; % SYNC
	3150	 128.605	 0.0	 150.0	 -150.0	 1.017094	 100.0	 1	 299	 -41.79	 0.0	 0.0	 0.0	 0.0	 0.0	 0.0	 0.0	 0.0	 0.0	 0.0	 0.0; % PEL
	3157	 69.0	 0.0	 69.0	 -69.0	 1.023658	 100.0	 1	 138	 0.0	 0.0	 0.0	 0.0	 0.0	 0.0	 0.0	 0.0	 0.0	 0.0	 0.0	 0.0; % PEL
	3163	 151.0	 0.0	 151.0	 -151.0	 1.006379	 100.0	 1	 302	 0.0	 0.0	 0.0	 0.0	 0.0	 0.0	 0.0	 0.0	 0.0	 0.0	 0.0	 0.0; % NG
	3183	 119.0	 0.0	 119.0	 -119.0	 1.056991	 100.0	 1	 238	 0.0	 0.0	 0.0	 0.0	 0.0	 0.0	 0.0	 0.0	 0.0	 0.0	 0.0	 0.0; % NG
	3205	 101.5	 0.0	 320.4	 -320.4	 1.03763	 100.0	 1	 203	 0.0	 0.0	 0.0	 0.0	 0.0	 0.0	 0.0	 0.0	 0.0	 0.0	 0.0	 0.0; % COW
	3218	 -52.6	 0.0	 68.4	 -68.4	 1.032146	 100.0	 1	 38	 -143.2	 0.0	 0.0	 0.0	 0.0	 0.0	 0.0	 0.0	 0.0	 0.0	 0.0	 0.0; % NG
	3233	 106.0	 36.235	 178.47	 -106.0	 1.012423	 100.0	 1	 212	 0.0	 0.0	 0.0	 0.0	 0.0	 0.0	 0.0	 0.0	 0.0	 0.0	 0.0	 0.0; % NG
	3240	 4.8	 0.0	 114.0	 -114.0	 1.051571	 100.0	 1	 66	 -56.4	 0.0	 0.0	 0.0	 0.0	 0.0	 0.0	 0.0	 0.0	 0.0	 0.0	 0.0; % COW
	3291	 221.1675	 24.5	 229.0	 -180.0	 1.027251	 100.0	 1	 359	 83.335	 0.0	 0.0	 0.0	 0.0	 0.0	 0.0	 0.0	 0.0	 0.0	 0.0	 0.0; % COW
	3306	 468.3325	 27.1	 439.2	 -385.0	 1.069265	 100.0	 1	 770	 166.665	 0.0	 0.0	 0.0	 0.0	 0.0	 0.0	 0.0	 0.0	 0.0	 0.0	 0.0; % COW
	3324	 227.85	 0.0	 246.0	 -246.0	 1.016523	 100.0	 1	 491	 -35.3	 0.0	 0.0	 0.0	 0.0	 0.0	 0.0	 0.0	 0.0	 0.0	 0.0	 0.0; % NG
	3334	 171.665	 0.0	 1572.0	 -1572.0	 1.03247	 100.0	 1	 404	 -60.67	 0.0	 0.0	 0.0	 0.0	 0.0	 0.0	 0.0	 0.0	 0.0	 0.0	 0.0; % NG
	3335	 10.5	 0.0	 99999.0	 -99999.0	 1.08873	 100.0	 1	 651	 -630.0	 0.0	 0.0	 0.0	 0.0	 0.0	 0.0	 0.0	 0.0	 0.0	 0.0	 0.0; % COW
	3346	 315.5	 0.0	 522.0	 -522.0	 1.014746	 100.0	 1	 631	 0.0	 0.0	 0.0	 0.0	 0.0	 0.0	 0.0	 0.0	 0.0	 0.0	 0.0	 0.0; % PEL
	3353	 60.5	 0.0	 61.0	 -61.0	 1.047796	 100.0	 1	 121	 0.0	 0.0	 0.0	 0.0	 0.0	 0.0	 0.0	 0.0	 0.0	 0.0	 0.0	 0.0; % NG
	3364	 81.5	 0.0	 82.0	 -82.0	 1.055303	 100.0	 1	 163	 0.0	 0.0	 0.0	 0.0	 0.0	 0.0	 0.0	 0.0	 0.0	 0.0	 0.0	 0.0; % COW
	3390	 266.0	 0.0	 266.0	 -266.0	 1.041678	 100.0	 1	 532	 0.0	 0.0	 0.0	 0.0	 0.0	 0.0	 0.0	 0.0	 0.0	 0.0	 0.0	 0.0; % NG
	3416	 79.0	 0.0	 79.0	 -79.0	 0.997085	 100.0	 1	 158	 0.0	 0.0	 0.0	 0.0	 0.0	 0.0	 0.0	 0.0	 0.0	 0.0	 0.0	 0.0; % NG
	3422	 109.5	 0.0	 110.0	 -110.0	 1.065868	 100.0	 1	 219	 0.0	 0.0	 0.0	 0.0	 0.0	 0.0	 0.0	 0.0	 0.0	 0.0	 0.0	 0.0; % COW
	3436	 667.5	 0.0	 568.0	 -568.0	 1.056276	 100.0	 1	 1135	 200.0	 0.0	 0.0	 0.0	 0.0	 0.0	 0.0	 0.0	 0.0	 0.0	 0.0	 0.0; % NUC
	3492	 -247.2	 16.335	 53.75	 -21.08	 1.04519	 100.0	 1	 0	 -494.4	 0.0	 0.0	 0.0	 0.0	 0.0	 0.0	 0.0	 0.0	 0.0	 0.0	 0.0; % SYNC
	3513	 565.5	 0.0	 721.2	 -721.2	 1.029628	 100.0	 1	 981	 150.0	 0.0	 0.0	 0.0	 0.0	 0.0	 0.0	 0.0	 0.0	 0.0	 0.0	 0.0; % NUC
	3565	 111.5	 0.0	 112.0	 -112.0	 1.079121	 100.0	 1	 223	 0.0	 0.0	 0.0	 0.0	 0.0	 0.0	 0.0	 0.0	 0.0	 0.0	 0.0	 0.0; % NG
	3580	 278.0	 0.0	 278.0	 -278.0	 1.075232	 100.0	 1	 556	 0.0	 0.0	 0.0	 0.0	 0.0	 0.0	 0.0	 0.0	 0.0	 0.0	 0.0	 0.0; % NG
	3582	 -214.535	 0.395	 52.83	 -52.04	 1.045127	 100.0	 1	 0	 -429.07	 0.0	 0.0	 0.0	 0.0	 0.0	 0.0	 0.0	 0.0	 0.0	 0.0	 0.0; % SYNC
	3584	 -13.935	 0.0	 45.0	 -45.0	 1.019651	 100.0	 1	 90	 -117.87	 0.0	 0.0	 0.0	 0.0	 0.0	 0.0	 0.0	 0.0	 0.0	 0.0	 0.0; % NG
	3585	 110.0	 0.0	 147.6	 -147.6	 1.006097	 100.0	 1	 220	 0.0	 0.0	 0.0	 0.0	 0.0	 0.0	 0.0	 0.0	 0.0	 0.0	 0.0	 0.0; % NG
...
];

%% generator cost data
%	2	startup	shutdown	n	c(n-1)	...	c0
mpc.gencost = [
	2	 0.0	 0.0	 3	   0.000000	   0.972970	   0.000000; % NG
	2	 0.0	 0.0	 3	   0.000000	   1.070022	   0.000000; % NG
	2	 0.0	 0.0	 3	   0.000000	   1.261292	   0.000000; % COW
	2	 0.0	 0.0	 3	   0.000000	   0.968337	   0.000000; % SYNC
	2	 0.0	 0.0	 3	   0.000000	   0.199042	   0.000000; % COW
	2	 0.0	 0.0	 3	   0.000000	   0.894102	   0.000000; % NG
	2	 0.0	 0.0	 3	   0.000000	   6.687860	   0.000000; % NG
	2	 0.0	 0.0	 3	   0.000000	   0.645185	   0.000000; % COW
	2	 0.0	 0.0	 3	   0.000000	   0.838193	   0.000000; % NG
	2	 0.0	 0.0	 3	   0.000000	   0.934192	   0.000000; % SYNC
	2	 0.0	 0.0	 3	   0.000000	   0.420394	   0.000000; % NUC
	2	 0.0	 0.0	 3	   0.000000	   0.256659	   0.000000; % NG
	2	 0.0	 0.0	 3	   0.000000	   1.143195	   0.000000; % NG
	2	 0.0	 0.0	 3	   0.000000	   0.948655	   0.000000; % COW
	2	 0.0	 0.0	 3	   0.000000	   1.102776	   0.000000; % NG
	2	 0.0	 0.0	 3	   0.000000	   0.929166	   0.000000; % NG
	2	 0.0	 0.0	 3	   0.000000	   0.711519	   0.000000; % COW
	2	 0.0	 0.0	 3	   0.000000	   0.483484	   0.000000; % NG
	2	 0.0	 0.0	 3	   0.000000	   0.732552	   0.000000; % NG
	2	 0.0	 0.0	 3	   0.000000	   1.023101	   0.000000; % COW
	2	 0.0	 0.0	 3	   0.000000	   1.138256	   0.000000; % NG
	2	 0.0	 0.0	 3	   0.000000	   0.835007	   0.000000; % SYNC
	2	 0.0	 0.0	 3	   0.000000	   0.944959	   0.000000; % NG
	2	 0.0	 0.0	 3	   0.000000	   0.970966	   0.000000; % COW
	2	 0.0	 0.0	 3	   0.000000	   0.537477	   0.000000; % NG
	2	 0.0	 0.0	 3	   0.000000	   1.108793	   0.000000; % NG
	2	 0.0	 0.0	 3	   0.000000	   1.213838	   0.000000; % COW
	2	 0.0	 0.0	 3	   0.000000	   0.977215	   0.000000; % COW
	2	 0.0	 0.0	 3	   0.000000	   1.470117	   0.000000; % NG
	2	 0.0	 0.0	 3	   0.000000	   0.773630	   0.000000; % NG
	2	 0.0	 0.0	 3	   0.000000	   1.473254	   0.000000; % NG
	2	 0.0	 0.0	 3	   0.000000	   0.852404	   0.000000; % PEL
	2	 0.0	 0.0	 3	   0.000000	   1.243143	   0.000000; % NG
	2	 0.0	 0.0	 3	   0.000000	   0.860619	   0.000000; % NG
	2	 0.0	 0.0	 3	   0.000000	   0.690560	   0.000000; % NG
	2	 0.0	 0.0	 3	   0.000000	   1.103049	   0.000000; % NG
	2	 0.0	 0.0	 3	   0.000000	   0.987135	   0.000000; % NG
	2	 0.0	 0.0	 3	   0.000000	   1.580607	   0.000000; % PEL
	2	 0.0	 0.0	 3	   0.000000	   1.162670	   0.000000; % NG
	2	 0.0	 0.0	 3	   0.000000	   1.040193	   0.000000; % NG
	2	 0.0	 0.0	 3	   0.000000	   1.080595	   0.000000; % NG
	2	 0.0	 0.0	 3	   0.000000	   1.006021	   0.000000; % NUC
	2	 0.0	 0.0	 3	   0.000000	   0.715653	   0.000000; % COW
	2	 0.0	 0.0	 3	   0.000000	   7.035149	   0.000000; % PEL
	2	 0.0	 0.0	 3	   0.000000	   0.893631	   0.000000; % NG
	2	 0.0	 0.0	 3	   0.000000	   0.171374	   0.000000; % COW
	2	 0.0	 0.0	 3	   0.000000	   0.218221	   0.000000; % COW
	2	 0.0	 0.0	 3	   0.000000	   0.692598	   0.000000; % NUC
	2	 0.0	 0.0	 3	   0.000000	   0.839481	   0.000000; % NG
	2	 0.0	 0.0	 3	   0.000000	   0.700882	   0.000000; % PEL
	2	 0.0	 0.0	 3	   0.000000	   0.567713	   0.000000; % COW
	2	 0.0	 0.0	 3	   0.000000	   0.650567	   0.000000; % NG
	2	 0.0	 0.0	 3	   0.000000	   0.686670	   0.000000; % COW
	2	 0.0	 0.0	 3	   0.000000	   0.811780	   0.000000; % NG
	2	 0.0	 0.0	 3	   0.000000	   0.998721	   0.000000; % COW
	2	 0.0	 0.0	 3	   0.000000	   0.786685	   0.000000; % NG
	2	 0.0	 0.0	 3	   0.000000	   1.288604	   0.000000; % NG
	2	 0.0	 0.0	 3	   0.000000	   0.973737	   0.000000; % COW
	2	 0.0	 0.0	 3	   0.000000	   1.006254	   0.000000; % NG
	2	 0.0	 0.0	 3	   0.000000	   0.945555	   0.000000; % COW
	2	 0.0	 0.0	 3	   0.000000	   1.134031	   0.000000; % NG
	2	 0.0	 0.0	 3	   0.000000	   0.556592	   0.000000; % NG
	2	 0.0	 0.0	 3	   0.000000	   1.074881	   0.000000; % NG
	2	 0.0	 0.0	 3	   0.000000	   0.760904	   0.000000; % SYNC
	2	 0.0	 0.0	 3	   0.000000	   0.497495	   0.000000; % NG
	2	 0.0	 0.0	 3	   0.000000	   0.494780	   0.000000; % COW
	2	 0.0	 0.0	 3	   0.000000	   0.791955	   0.000000; % NUC
	2	 0.0	 0.0	 3	   0.000000	   6.779736	   0.000000; % PEL
	2	 0.0	 0.0	 3	   0.000000	   0.211764	   0.000000; % COW
	2	 0.0	 0.0	 3	   0.000000	   0.321480	   0.000000; % NG
	2	 0.0	 0.0	 3	   0.000000	   0.837347	   0.000000; % SYNC
	2	 0.0	 0.0	 3	   0.000000	   7.500397	   0.000000; % NG
	2	 0.0	 0.0	 3	   0.000000	   0.437919	   0.000000; % SYNC
	2	 0.0	 0.0	 3	   0.000000	   1.282952	   0.000000; % NG
	2	 0.0	 0.0	 3	   0.000000	   1.080605	   0.000000; % COW
	2	 0.0	 0.0	 3	   0.000000	   0.285172	   0.000000; % COW
	2	 0.0	 0.0	 3	   0.000000	   0.359590	   0.000000; % NG
	2	 0.0	 0.0	 3	   0.000000	   0.958875	   0.000000; % NG
	2	 0.0	 0.0	 3	   0.000000	   0.863727	   0.000000; % NUC
	2	 0.0	 0.0	 3	   0.000000	   0.996005	   0.000000; % COW
	2	 0.0	 0.0	 3	   0.000000	   0.977563	   0.000000; % NG
	2	 0.0	 0.0	 3	   0.000000	   6.417923	   0.000000; % NG
	2	 0.0	 0.0	 3	   0.000000	   0.998133	   0.000000; % NG
	2	 0.0	 0.0	 3	   0.000000	   1.060498	   0.000000; % PEL
	2	 0.0	 0.0	 3	   0.000000	   1.025107	   0.000000; % SYNC
	2	 0.0	 0.0	 3	   0.000000	   0.934858	   0.000000; % NG
	2	 0.0	 0.0	 3	   0.000000	   1.301111	   0.000000; % COW
	2	 0.0	 0.0	 3	   0.000000	   1.082455	   0.000000; % NG
	2	 0.0	 0.0	 3	   0.000000	   0.796840	   0.000000; % NG
	2	 0.0	 0.0	 3	   0.000000	   0.196437	   0.000000; % COW
	2	 0.0	 0.0	 3	   0.000000	   1.128326	   0.000000; % COW
	2	 0.0	 0.0	 3	   0.000000	   1.079413	   0.000000; % COW
	2	 0.0	 0.0	 3	   0.000000	   0.932049	   0.000000; % NG
	2	 0.0	 0.0	 3	   0.000000	   0.675517	   0.000000; % NG
	2	 0.0	 0.0	 3	   0.000000	   1.119903	   0.000000; % COW
	2	 0.0	 0.0	 3	   0.000000	   0.555392	   0.000000; % COW
	2	 0.0	 0.0	 3	   0.000000	   0.796269	   0.000000; % NG
	2	 0.0	 0.0	 3	   0.000000	   0.831311	   0.000000; % PEL
	2	 0.0	 0.0	 3	   0.000000	   7.098894	   0.000000; % PEL
	2	 0.0	 0.0	 3	   0.000000	   1.019402	   0.000000; % NG
	2	 0.0	 0.0	 3	   0.000000	   0.646327	   0.000000; % COW
	2	 0.0	 0.0	 3	   0.000000	   0.601245	   0.000000; % NUC
	2	 0.0	 0.0	 3	   0.000000	   1.485757	   0.000000; % COW
	2	 0.0	 0.0	 3	   0.000000	   0.807403	   0.000000; % NG
	2	 0.0	 0.0	 3	   0.000000	   0.904166	   0.000000; % COW
	2	 0.0	 0.0	 3	   0.000000	   0.708195	   0.000000; % NG
	2	 0.0	 0.0	 3	   0.000000	   1.246592	   0.000000; % NG
	2	 0.0	 0.0	 3	   0.000000	   1.124746	   0.000000; % COW
	2	 0.0	 0.0	 3	   0.000000	   1.127914	   0.000000; % COW
	2	 0.0	 0.0	 3	   0.000000	   0.746257	   0.000000; % COW
	2	 0.0	 0.0	 3	   0.000000	   0.922860	   0.000000; % COW
	2	 0.0	 0.0	 3	   0.000000	   0.945923	   0.000000; % NG
	2	 0.0	 0.0	 3	   0.000000	   0.799102	   0.000000; % NG
	2	 0.0	 0.0	 3	   0.000000	   0.386737	   0.000000; % COW
	2	 0.0	 0.0	 3	   0.000000	   1.064407	   0.000000; % COW
	2	 0.0	 0.0	 3	   0.000000	   1.379388	   0.000000; % COW
	2	 0.0	 0.0	 3	   0.000000	   1.227049	   0.000000; % NG
	2	 0.0	 0.0	 3	   0.000000	   1.004257	   0.000000; % NG
	2	 0.0	 0.0	 3	   0.000000	   0.865447	   0.000000; % NG
	2	 0.0	 0.0	 3	   0.000000	   1.240790	   0.000000; % COW
	2	 0.0	 0.0	 3	   0.000000	   1.423021	   0.000000; % COW
	2	 0.0	 0.0	 3	   0.000000	   0.374653	   0.000000; % NG
	2	 0.0	 0.0	 3	   0.000000	   0.892535	   0.000000; % COW
	2	 0.0	 0.0	 3	   0.000000	   0.850768	   0.000000; % NG
	2	 0.0	 0.0	 3	   0.000000	   1.083282	   0.000000; % COW
	2	 0.0	 0.0	 3	   0.000000	   1.054395	   0.000000; % COW
	2	 0.0	 0.0	 3	   0.000000	   0.903556	   0.000000; % PEL
	2	 0.0	 0.0	 3	   0.000000	   0.790981	   0.000000; % NG
	2	 0.0	 0.0	 3	   0.000000	   0.768482	   0.000000; % COW
	2	 0.0	 0.0	 3	   0.000000	   1.169676	   0.000000; % NG
	2	 0.0	 0.0	 3	   0.000000	   1.051187	   0.000000; % NG
	2	 0.0	 0.0	 3	   0.000000	   0.632186	   0.000000; % COW
	2	 0.0	 0.0	 3	   0.000000	   0.890636	   0.000000; % NG
	2	 0.0	 0.0	 3	   0.000000	   0.696344	   0.000000; % NG
	2	 0.0	 0.0	 3	   0.000000	   0.829496	   0.000000; % NG
	2	 0.0	 0.0	 3	   0.000000	   0.892987	   0.000000; % NG
	2	 0.0	 0.0	 3	   0.000000	   0.951260	   0.000000; % NG
	2	 0.0	 0.0	 3	   0.000000	   0.959407	   0.000000; % NG
	2	 0.0	 0.0	 3	   0.000000	   0.537326	   0.000000; % NG
	2	 0.0	 0.0	 3	   0.000000	   0.740838	   0.000000; % NG
	2	 0.0	 0.0	 3	   0.000000	   0.212441	   0.000000; % COW
	2	 0.0	 0.0	 3	   0.000000	   0.853669	   0.000000; % COW
	2	 0.0	 0.0	 3	   0.000000	   1.013989	   0.000000; % COW
	2	 0.0	 0.0	 3	   0.000000	   0.916180	   0.000000; % COW
	2	 0.0	 0.0	 3	   0.000000	   1.288680	   0.000000; % NG
	2	 0.0	 0.0	 3	   0.000000	   1.198563	   0.000000; % NG
	2	 0.0	 0.0	 3	   0.000000	   1.304907	   0.000000; % COW
	2	 0.0	 0.0	 3	   0.000000	   0.988901	   0.000000; % COW
	2	 0.0	 0.0	 3	   0.000000	   0.622111	   0.000000; % NUC
	2	 0.0	 0.0	 3	   0.000000	   0.529669	   0.000000; % SYNC
	2	 0.0	 0.0	 3	   0.000000	   1.377138	   0.000000; % COW
	2	 0.0	 0.0	 3	   0.000000	   1.119562	   0.000000; % NUC
	2	 0.0	 0.0	 3	   0.000000	   0.593578	   0.000000; % COW
	2	 0.0	 0.0	 3	   0.000000	   1.061244	   0.000000; % NG
	2	 0.0	 0.0	 3	   0.000000	   0.902021	   0.000000; % COW
	2	 0.0	 0.0	 3	   0.000000	   1.204795	   0.000000; % NG
	2	 0.0	 0.0	 3	   0.000000	   0.490552	   0.000000; % COW
	2	 0.0	 0.0	 3	   0.000000	   7.088840	   0.000000; % COW
	2	 0.0	 0.0	 3	   0.000000	   0.961049	   0.000000; % NG
	2	 0.0	 0.0	 3	   0.000000	   7.029482	   0.000000; % NG
	2	 0.0	 0.0	 3	   0.000000	   1.163606	   0.000000; % SYNC
	2	 0.0	 0.0	 3	   0.000000	   1.036736	   0.000000; % PEL
	2	 0.0	 0.0	 3	   0.000000	   1.051718	   0.000000; % NG
	2	 0.0	 0.0	 3	   0.000000	   1.254689	   0.000000; % PEL
	2	 0.0	 0.0	 3	   0.000000	   0.970081	   0.000000; % NG
	2	 0.0	 0.0	 3	   0.000000	   0.816707	   0.000000; % COW
	2	 0.0	 0.0	 3	   0.000000	   1.398092	   0.000000; % NG
	2	 0.0	 0.0	 3	   0.000000	   0.923506	   0.000000; % COW
	2	 0.0	 0.0	 3	   0.000000	   0.933060	   0.000000; % NG
	2	 0.0	 0.0	 3	   0.000000	   1.232192	   0.000000; % NG
	2	 0.0	 0.0	 3	   0.000000	   6.829283	   0.000000; % COW
	2	 0.0	 0.0	 3	   0.000000	   0.930373	   0.000000; % COW
	2	 0.0	 0.0	 3	   0.000000	   1.284214	   0.000000; % SYNC
	2	 0.0	 0.0	 3	   0.000000	   0.744164	   0.000000; % PEL
	2	 0.0	 0.0	 3	   0.000000	   1.149330	   0.000000; % PEL
	2	 0.0	 0.0	 3	   0.000000	   0.783279	   0.000000; % NG
	2	 0.0	 0.0	 3	   0.000000	   1.163761	   0.000000; % NG
	2	 0.0	 0.0	 3	   0.000000	   1.077796	   0.000000; % COW
	2	 0.0	 0.0	 3	   0.000000	   0.846173	   0.000000; % NG
	2	 0.0	 0.0	 3	   0.000000	   1.231090	   0.000000; % NG
	2	 0.0	 0.0	 3	   0.000000	   1.212739	   0.000000; % COW
	2	 0.0	 0.0	 3	   0.000000	   0.985501	   0.000000; % COW
	2	 0.0	 0.0	 3	   0.000000	   0.833548	   0.000000; % COW
	2	 0.0	 0.0	 3	   0.000000	   1.199671	   0.000000; % NG
	2	 0.0	 0.0	 3	   0.000000	   0.992925	   0.000000; % NG
	2	 0.0	 0.0	 3	   0.000000	   0.879661	   0.000000; % COW
	2	 0.0	 0.0	 3	   0.000000	   0.401626	   0.000000; % PEL
	2	 0.0	 0.0	 3	   0.000000	   1.194251	   0.000000; % NG
	2	 0.0	 0.0	 3	   0.000000	   1.549033	   0.000000; % COW
	2	 0.0	 0.0	 3	   0.000000	   0.891748	   0.000000; % NG
	2	 0.0	 0.0	 3	   0.000000	   0.806161	   0.000000; % NG
	2	 0.0	 0.0	 3	   0.000000	   1.354858	   0.000000; % COW
	2	 0.0	 0.0	 3	   0.000000	   1.007921	   0.000000; % NUC
	2	 0.0	 0.0	 3	   0.000000	   1.171662	   0.000000; % SYNC
	2	 0.0	 0.0	 3	   0.000000	   0.536810	   0.000000; % NUC
	2	 0.0	 0.0	 3	   0.000000	   0.772967	   0.000000; % NG
	2	 0.0	 0.0	 3	   0.000000	   0.564345	   0.000000; % NG
	2	 0.0	 0.0	 3	   0.000000	   0.424704	   0.000000; % SYNC
	2	 0.0	 0.0	 3	   0.000000	   0.988879	   0.000000; % NG
	2	 0.0	 0.0	 3	   0.000000	   1.352653	   0.000000; % NG
...
];

%% branch data
%	fbus	tbus	r	x	b	rateA	rateB	rateC	ratio	angle	status	angmin	angmax
mpc.branch = [
	5147	 3097	 0.0006	 0.00616	 0.0	 823.0	 5104.0	 5104.0	 0.0	 0.0	 1	 -30.0	 30.0;
	5147	 8763	 0.0005	 0.0074	 0.0	 921.0	 4259.0	 4259.0	 0.0	 0.0	 1	 -30.0	 30.0;
	427	 5425	 7e-05	 0.00057	 0.0	 1711.0	 55004.0	 55004.0	 0.0	 0.0	 1	 -30.0	 30.0;
	427	 4704	 6e-05	 0.00056	 0.0	 1514.0	 56085.0	 56085.0	 0.0	 0.0	 1	 -30.0	 30.0;
	5960	 7431	 0.003349	 0.01656	 0.0	 1870.0	 1870.0	 1870.0	 0.0	 0.0	 1	 -30.0	 30.0;
	5960	 3186	 0.003409	 0.016211	 0.0	 1907.0	 1907.0	 1907.0	 0.0	 0.0	 1	 -30.0	 30.0;
	4481	 7431	 0.003479	 0.01586	 0.0	 1946.0	 1946.0	 1946.0	 0.0	 0.0	 1	 -30.0	 30.0;
	4481	 3186	 0.003099	 0.017969	 0.0	 1733.0	 1733.0	 1733.0	 0.0	 0.0	 1	 -30.0	 30.0;
	5205	 7833	 0.00236	 0.01418	 0.0	 553.0	 2198.0	 2198.0	 0.0	 0.0	 1	 -30.0	 30.0;
	5205	 7770	 0.002169	 0.015909	 0.0	 514.0	 1968.0	 1968.0	 0.0	 0.0	 1	 -30.0	 30.0;
	5773	 6542	 0.00014	 0.0012	 0.0	 26146.0	 26146.0	 26146.0	 0.0	 0.0	 1	 -30.0	 30.0;
	5773	 7840	 0.000211	 0.001539	 0.0	 20335.0	 20335.0	 20335.0	 0.0	 0.0	 1	 -30.0	 30.0;
	5214	 6542	 0.000401	 0.004901	 0.0	 6424.0	 6424.0	 6424.0	 0.0	 0.0	 1	 -30.0	 30.0;
	5214	 7840	 0.000219	 0.00151	 0.0	 533.0	 20703.0	 20703.0	 0.0	 0.0	 1	 -30.0	 30.0;
	2971	 6069	 0.00052	 0.00407	 0.0	 1481.0	 7699.0	 7699.0	 0.0	 0.0	 1	 -30.0	 30.0;
	2971	 3445	 0.00034	 0.00502	 0.0	 1843.0	 6278.0	 6278.0	 0.0	 0.0	 1	 -30.0	 30.0;
	7561	 6069	 0.00065	 0.00698	 0.0	 1711.0	 4506.0	 4506.0	 0.0	 0.0	 1	 -30.0	 30.0;
	7561	 8825	 0.00059	 0.00806	 0.0	 1678.0	 3909.0	 3909.0	 0.0	 0.0	 1	 -30.0	 30.0;
	7556	 7058	 0.00374	 0.02095	 0.0	 800.0	 1485.0	 1485.0	 0.0	 0.0	 1	 -30.0	 30.0;
	7556	 4324	 0.00511	 0.019461	 0.0	 800.0	 1570.0	 1570.0	 0.0	 0.0	 1	 -30.0	 30.0;
	132	 2962	 0.00064	 0.00715	 0.0	 1481.0	 4401.0	 4401.0	 0.0	 0.0	 1	 -30.0	 30.0;
	132	 4393	 0.00089	 0.00712	 0.0	 1283.0	 4403.0	 4403.0	 0.0	 0.0	 1	 -30.0	 30.0;
	5044	 693	 0.00048	 0.00555	 0.0	 987.0	 5671.0	 5671.0	 0.0	 0.0	 1	 -30.0	 30.0;
	5044	 7860	 0.00047	 0.00566	 0.0	 1086.0	 5562.0	 5562.0	 0.0	 0.0	 1	 -30.0	 30.0;
	6883	 693	 0.00046	 0.00524	 0.0	 1053.0	 6006.0	 6006.0	 0.0	 0.0	 1	 -30.0	 30.0;
	6883	 7860	 0.00052	 0.00514	 0.0	 1053.0	 6115.0	 6115.0	 0.0	 0.0	 1	 -30.0	 30.0;
	6494	 4945	 0.00029	 0.00298	 0.0	 1613.0	 10550.0	 10550.0	 0.0	 0.0	 1	 -30.0	 30.0;
	6494	 6080	 0.0003	 0.00291	 0.0	 1514.0	 10798.0	 10798.0	 0.0	 0.0	 1	 -30.0	 30.0;
	7146	 7388	 0.00042	 0.02666	 0.0	 1185.0	 1185.0	 1185.0	 0.0	 0.0	 1	 -30.0	 30.0;
	4735	 5239	 0.00058	 0.00534	 0.0	 1876.0	 5881.0	 5881.0	 0.0	 0.0	 1	 -30.0	 30.0;
	4735	 3145	 0.00054	 0.00589	 0.0	 1843.0	 5341.0	 5341.0	 0.0	 0.0	 1	 -30.0	 30.0;
	3615	 8731	 0.00036	 0.00485	 0.0	 6495.0	 6495.0	 6495.0	 0.0	 0.0	 1	 -30.0	 30.0;
...